data_image0
_chemical_formula_structural       C2HCHCHC3HO2C2HCHC2HCHO2C2O3C3HC2HCHC4HC2HCHNHOC2HCHCHC3HO2C2HC4H3O2CO2CO2C3HC2HCHNHC4HC2H2C3HCHCHC3HO2C2HCHCHC3HO2NHCO2C3HC2HCHCO2C3HC2HCHC2HCHCHC3HO2C2HCHCHC3HO3C3HC2HCHNHCO2C3HC2HCHCOC2HCHCHC3HO2C2HCHCHC3HO2NHCO2C3HC2HC2HO2C3HC2HCHCHCHC3HO2C2HCHCHC3HO2C2HCO2C3HC2HCHCO2NC2HC2HC2H2C2HCHCHC3HO2C2HCHCHC3HO2CO2C3HC2HC2HO2C3HC2HCHNHC2HCHCHC3HO2C2HCHCHC3HO2CHC2HCHCO2C3HC2HCHNHCO2C3OC2HCHC3HCHCHC4HO2HOHCONHCHC2OC3HCO2C4HC2H2CHCOC2HCHC3HCHCHC4HO2HOHCOCNHCHC2OC3HO2C3HC2HCHCH2C3HO2C2HCHCHC3HO2C2HCHC2O2C3HC2HCHCO2C3HC2HCHNHC2HCHCHC3HO2C2HCHCHC3HO2CO2C3HC2HCHCO2C3HC2HCHNHC2HCHCHC3HO2C2HCHCHC3HO2CO2C3HC2HCHCO2C3HC2HCHNHO2C2HCHCHC3HO2C2HCHCHC3HO2C3HC2HCHNHCO2C3HC2HCHC3HCHCHC3HO2C2HCHCHC3HO2NHCO2C3HC2HCHCO2C3HC2HCHC2HO2C2HCHCHC3HO2C2HCHCHCO2C3HC2HCHCO2C3HC2HCHNHCIn16
_chemical_formula_sum              "C448 H240 O128 N16 In16"
_cell_length_a       27.1274
_cell_length_b       27.1274
_cell_length_c       29.788
_cell_angle_alpha    90
_cell_angle_beta     90
_cell_angle_gamma    90

_space_group_name_H-M_alt    "P 1"
_space_group_IT_number       1

loop_
  _space_group_symop_operation_xyz
  'x, y, z'

loop_
  _atom_site_type_symbol
  _atom_site_label
  _atom_site_symmetry_multiplicity
  _atom_site_fract_x
  _atom_site_fract_y
  _atom_site_fract_z
  _atom_site_occupancy
  C   C1        1.0  0.31360  0.53810  0.63060  1.0000
  C   C2        1.0  0.44580  0.52600  0.66670  1.0000
  H   H1        1.0  0.46270  0.51240  0.69090  1.0000
  C   C3        1.0  0.39460  0.52360  0.66680  1.0000
  H   H2        1.0  0.37850  0.50900  0.69100  1.0000
  C   C4        1.0  0.39440  0.56490  0.60080  1.0000
  H   H3        1.0  0.37790  0.58120  0.57780  1.0000
  C   C5        1.0  0.36690  0.54270  0.63120  1.0000
  C   C6        1.0  0.47270  0.54730  0.63300  1.0000
  C   C7        1.0  0.44640  0.56660  0.59960  1.0000
  H   H4        1.0  0.46240  0.58120  0.57540  1.0000
  O   O1        1.0  0.29098  0.55460  0.59620  1.0000
  O   O2        1.0  0.29090  0.52120  0.66220  1.0000
  C   C8        1.0  0.55420  0.52600  0.66670  1.0000
  C   C9        1.0  0.60540  0.52360  0.66680  1.0000
  H   H5        1.0  0.53730  0.51240  0.69090  1.0000
  C   C10       1.0  0.60560  0.56490  0.60080  1.0000
  H   H6        1.0  0.62150  0.50900  0.69100  1.0000
  C   C11       1.0  0.52730  0.54730  0.63300  1.0000
  C   C12       1.0  0.55360  0.56660  0.59960  1.0000
  H   H7        1.0  0.53760  0.58120  0.57540  1.0000
  C   C13       1.0  0.63310  0.54270  0.63120  1.0000
  H   H8        1.0  0.62210  0.58120  0.57780  1.0000
  O   O3        1.0  0.70910  0.52120  0.66220  1.0000
  O   O4        1.0  0.70902  0.55460  0.59620  1.0000
  C   C14       1.0  0.68640  0.53810  0.63060  1.0000
  C   C15       1.0  0.14980  0.55080  0.56170  1.0000
  O   O5        1.0  0.86141  0.53850  0.60190  1.0000
  O   O6        1.0  0.13859  0.53850  0.60190  1.0000
  O   O7        1.0  0.19604  0.55480  0.55360  1.0000
  C   C16       1.0  0.11160  0.55910  0.52850  1.0000
  C   C17       1.0  0.04040  0.57340  0.46470  1.0000
  C   C18       1.0  0.06260  0.55630  0.53940  1.0000
  H   H9        1.0  0.05330  0.54860  0.56870  1.0000
  C   C19       1.0  0.02740  0.56470  0.50760  1.0000
  C   C20       1.0  0.12590  0.56980  0.48430  1.0000
  H   H10       1.0  0.15920  0.57260  0.47730  1.0000
  C   C21       1.0  0.09140  0.57600  0.45190  1.0000
  H   H11       1.0  0.10050  0.58180  0.42220  1.0000
  C   C22       1.0  0.85020  0.55080  0.56170  1.0000
  C   C23       1.0  0.88840  0.55910  0.52850  1.0000
  C   C24       1.0  0.95960  0.57340  0.46470  1.0000
  C   C25       1.0  0.93740  0.55630  0.53940  1.0000
  H   H12       1.0  0.94670  0.54860  0.56870  1.0000
  C   C26       1.0  0.97260  0.56470  0.50760  1.0000
  C   C27       1.0  0.87410  0.56980  0.48430  1.0000
  H   H13       1.0  0.84080  0.57260  0.47730  1.0000
  C   C28       1.0  0.90860  0.57600  0.45190  1.0000
  H   H14       1.0  0.89950  0.58180  0.42220  1.0000
  N   N1        1.0  0.00000  0.58040  0.43670  1.0000
  H   H15       1.0  0.00000  0.56320  0.41240  1.0000
  O   O8        1.0  0.80396  0.55480  0.55360  1.0000
  C   C29       1.0  0.81360  0.03810  0.13060  1.0000
  C   C30       1.0  0.94580  0.02600  0.16670  1.0000
  H   H16       1.0  0.96270  0.01240  0.19090  1.0000
  C   C31       1.0  0.89460  0.02360  0.16680  1.0000
  H   H17       1.0  0.87850  0.00900  0.19100  1.0000
  C   C32       1.0  0.89440  0.06490  0.10080  1.0000
  H   H18       1.0  0.87790  0.08120  0.07780  1.0000
  C   C33       1.0  0.86690  0.04270  0.13120  1.0000
  C   C34       1.0  0.97270  0.04730  0.13300  1.0000
  C   C35       1.0  0.94640  0.06660  0.09960  1.0000
  H   H19       1.0  0.96240  0.08120  0.07540  1.0000
  O   O9        1.0  0.79098  0.05460  0.09620  1.0000
  O   O10       1.0  0.79090  0.02120  0.16220  1.0000
  C   C36       1.0  0.05420  0.02600  0.16670  1.0000
  C   C37       1.0  0.10540  0.02360  0.16680  1.0000
  H   H20       1.0  0.03730  0.01240  0.19090  1.0000
  C   C38       1.0  0.10560  0.06490  0.10080  1.0000
  C   C39       1.0  0.13310  0.04270  0.13120  1.0000
  C   C40       1.0  0.02730  0.04730  0.13300  1.0000
  C   C41       1.0  0.05360  0.06660  0.09960  1.0000
  H   H21       1.0  0.03760  0.08120  0.07540  1.0000
  H   H22       1.0  0.12150  0.00900  0.19100  1.0000
  H   H23       1.0  0.12210  0.08120  0.07780  1.0000
  O   O11       1.0  0.20902  0.05460  0.09620  1.0000
  O   O12       1.0  0.20910  0.02120  0.16220  1.0000
  C   C42       1.0  0.18640  0.03810  0.13060  1.0000
  O   O13       1.0  0.36141  0.03850  0.10190  1.0000
  O   O14       1.0  0.30396  0.05480  0.05360  1.0000
  C   C43       1.0  0.64980  0.05080  0.06170  1.0000
  O   O15       1.0  0.63859  0.03850  0.10190  1.0000
  O   O16       1.0  0.69604  0.05480  0.05360  1.0000
  C   C44       1.0  0.61160  0.05910  0.02850  1.0000
  C   C45       1.0  0.54040  0.07340  0.96470  1.0000
  C   C46       1.0  0.56260  0.05630  0.03940  1.0000
  H   H24       1.0  0.55330  0.04860  0.06870  1.0000
  C   C47       1.0  0.52740  0.06470  0.00760  1.0000
  C   C48       1.0  0.62590  0.06980  0.98430  1.0000
  H   H25       1.0  0.65920  0.07260  0.97730  1.0000
  C   C49       1.0  0.59140  0.07600  0.95190  1.0000
  H   H26       1.0  0.60050  0.08180  0.92220  1.0000
  N   N2        1.0  0.50000  0.08040  0.93670  1.0000
  H   H27       1.0  0.50000  0.06320  0.91240  1.0000
  C   C50       1.0  0.45960  0.07340  0.96470  1.0000
  C   C51       1.0  0.43740  0.05630  0.03940  1.0000
  C   C52       1.0  0.38840  0.05910  0.02850  1.0000
  C   C53       1.0  0.47260  0.06470  0.00760  1.0000
  H   H28       1.0  0.44670  0.04860  0.06870  1.0000
  C   C54       1.0  0.37410  0.06980  0.98430  1.0000
  C   C55       1.0  0.40860  0.07600  0.95190  1.0000
  H   H29       1.0  0.39950  0.08180  0.92220  1.0000
  H   H30       1.0  0.34080  0.07260  0.97730  1.0000
  C   C56       1.0  0.35020  0.05080  0.06170  1.0000
  C   C57       1.0  0.18640  0.46190  0.13060  1.0000
  C   C58       1.0  0.05420  0.47400  0.16670  1.0000
  H   H31       1.0  0.03730  0.48760  0.19090  1.0000
  C   C59       1.0  0.10540  0.47640  0.16680  1.0000
  H   H32       1.0  0.12150  0.49100  0.19100  1.0000
  C   C60       1.0  0.10560  0.43510  0.10080  1.0000
  H   H33       1.0  0.12210  0.41880  0.07780  1.0000
  C   C61       1.0  0.13310  0.45730  0.13120  1.0000
  C   C62       1.0  0.02730  0.45270  0.13300  1.0000
  C   C63       1.0  0.05360  0.43340  0.09960  1.0000
  H   H34       1.0  0.03760  0.41880  0.07540  1.0000
  O   O17       1.0  0.20902  0.44540  0.09620  1.0000
  O   O18       1.0  0.20910  0.47880  0.16220  1.0000
  C   C64       1.0  0.81360  0.46190  0.13060  1.0000
  C   C65       1.0  0.94580  0.47400  0.16670  1.0000
  H   H35       1.0  0.96270  0.48760  0.19090  1.0000
  C   C66       1.0  0.89460  0.47640  0.16680  1.0000
  H   H36       1.0  0.87850  0.49100  0.19100  1.0000
  C   C67       1.0  0.89440  0.43510  0.10080  1.0000
  H   H37       1.0  0.87790  0.41880  0.07780  1.0000
  C   C68       1.0  0.86690  0.45730  0.13120  1.0000
  C   C69       1.0  0.97270  0.45270  0.13300  1.0000
  C   C70       1.0  0.94640  0.43340  0.09960  1.0000
  H   H38       1.0  0.96240  0.41880  0.07540  1.0000
  O   O19       1.0  0.79098  0.44540  0.09620  1.0000
  O   O20       1.0  0.79090  0.47880  0.16220  1.0000
  N   N3        1.0  0.50000  0.41960  0.93670  1.0000
  H   H39       1.0  0.50000  0.43680  0.91240  1.0000
  C   C71       1.0  0.35020  0.44920  0.06170  1.0000
  O   O21       1.0  0.36141  0.46150  0.10190  1.0000
  O   O22       1.0  0.30396  0.44520  0.05360  1.0000
  C   C72       1.0  0.38840  0.44090  0.02850  1.0000
  C   C73       1.0  0.45960  0.42660  0.96470  1.0000
  C   C74       1.0  0.43740  0.44370  0.03940  1.0000
  H   H40       1.0  0.44670  0.45140  0.06870  1.0000
  C   C75       1.0  0.47260  0.43530  0.00760  1.0000
  C   C76       1.0  0.37410  0.43020  0.98430  1.0000
  H   H41       1.0  0.34080  0.42740  0.97730  1.0000
  C   C77       1.0  0.40860  0.42400  0.95190  1.0000
  H   H42       1.0  0.39950  0.41820  0.92220  1.0000
  C   C78       1.0  0.64980  0.44920  0.06170  1.0000
  O   O23       1.0  0.63859  0.46150  0.10190  1.0000
  O   O24       1.0  0.69604  0.44520  0.05360  1.0000
  C   C79       1.0  0.61160  0.44090  0.02850  1.0000
  C   C80       1.0  0.54040  0.42660  0.96470  1.0000
  C   C81       1.0  0.56260  0.44370  0.03940  1.0000
  H   H43       1.0  0.55330  0.45140  0.06870  1.0000
  C   C82       1.0  0.52740  0.43530  0.00760  1.0000
  C   C83       1.0  0.62590  0.43020  0.98430  1.0000
  H   H44       1.0  0.65920  0.42740  0.97730  1.0000
  C   C84       1.0  0.59140  0.42400  0.95190  1.0000
  H   H45       1.0  0.60050  0.41820  0.92220  1.0000
  C   C85       1.0  0.68640  0.96190  0.63060  1.0000
  C   C86       1.0  0.55420  0.97400  0.66670  1.0000
  H   H46       1.0  0.53730  0.98760  0.69090  1.0000
  C   C87       1.0  0.60540  0.97640  0.66680  1.0000
  H   H47       1.0  0.62150  0.99100  0.69100  1.0000
  C   C88       1.0  0.60560  0.93510  0.60080  1.0000
  H   H48       1.0  0.62210  0.91880  0.57780  1.0000
  C   C89       1.0  0.63310  0.95730  0.63120  1.0000
  C   C90       1.0  0.52730  0.95270  0.63300  1.0000
  C   C91       1.0  0.55360  0.93340  0.59960  1.0000
  H   H49       1.0  0.53760  0.91880  0.57540  1.0000
  O   O25       1.0  0.70902  0.94540  0.59620  1.0000
  O   O26       1.0  0.70910  0.97880  0.66220  1.0000
  C   C92       1.0  0.31360  0.96190  0.63060  1.0000
  C   C93       1.0  0.44580  0.97400  0.66670  1.0000
  H   H50       1.0  0.46270  0.98760  0.69090  1.0000
  C   C94       1.0  0.39460  0.97640  0.66680  1.0000
  H   H51       1.0  0.37850  0.99100  0.69100  1.0000
  C   C95       1.0  0.39440  0.93510  0.60080  1.0000
  H   H52       1.0  0.37790  0.91880  0.57780  1.0000
  C   C96       1.0  0.36690  0.95730  0.63120  1.0000
  C   C97       1.0  0.47270  0.95270  0.63300  1.0000
  C   C98       1.0  0.44640  0.93340  0.59960  1.0000
  H   H53       1.0  0.46240  0.91880  0.57540  1.0000
  O   O27       1.0  0.29098  0.94540  0.59620  1.0000
  O   O28       1.0  0.29090  0.97880  0.66220  1.0000
  O   O29       1.0  0.19604  0.94520  0.55360  1.0000
  C   C99       1.0  0.11160  0.94090  0.52850  1.0000
  C   C100      1.0  0.04040  0.92660  0.46470  1.0000
  C   C101      1.0  0.06260  0.94370  0.53940  1.0000
  H   H54       1.0  0.05330  0.95140  0.56870  1.0000
  C   C102      1.0  0.02740  0.93530  0.50760  1.0000
  C   C103      1.0  0.12590  0.93020  0.48430  1.0000
  H   H55       1.0  0.15920  0.92740  0.47730  1.0000
  C   C104      1.0  0.09140  0.92400  0.45190  1.0000
  H   H56       1.0  0.10050  0.91820  0.42220  1.0000
  N   N4        1.0  0.00000  0.91960  0.43670  1.0000
  H   H57       1.0  0.00000  0.93680  0.41240  1.0000
  C   C105      1.0  0.85020  0.94920  0.56170  1.0000
  O   O30       1.0  0.86141  0.96150  0.60190  1.0000
  O   O31       1.0  0.80396  0.94520  0.55360  1.0000
  C   C106      1.0  0.88840  0.94090  0.52850  1.0000
  C   C107      1.0  0.95960  0.92660  0.46470  1.0000
  C   C108      1.0  0.93740  0.94370  0.53940  1.0000
  H   H58       1.0  0.94670  0.95140  0.56870  1.0000
  C   C109      1.0  0.97260  0.93530  0.50760  1.0000
  C   C110      1.0  0.87410  0.93020  0.48430  1.0000
  H   H59       1.0  0.84080  0.92740  0.47730  1.0000
  C   C111      1.0  0.90860  0.92400  0.45190  1.0000
  H   H60       1.0  0.89950  0.91820  0.42220  1.0000
  C   C112      1.0  0.14980  0.94920  0.56170  1.0000
  O   O32       1.0  0.13859  0.96150  0.60190  1.0000
  C   C113      1.0  0.71190  0.43640  0.88060  1.0000
  C   C114      1.0  0.72400  0.30420  0.91670  1.0000
  H   H61       1.0  0.73760  0.28730  0.94090  1.0000
  C   C115      1.0  0.72640  0.35540  0.91680  1.0000
  H   H62       1.0  0.74100  0.37150  0.94100  1.0000
  C   C116      1.0  0.68510  0.35560  0.85080  1.0000
  H   H63       1.0  0.66880  0.37210  0.82780  1.0000
  C   C117      1.0  0.70730  0.38310  0.88120  1.0000
  C   C118      1.0  0.70270  0.27730  0.88300  1.0000
  C   C119      1.0  0.68340  0.30360  0.84960  1.0000
  H   H64       1.0  0.66880  0.28760  0.82540  1.0000
  O   O33       1.0  0.69540  0.45902  0.84620  1.0000
  O   O34       1.0  0.72880  0.45910  0.91220  1.0000
  C   C120      1.0  0.71190  0.06360  0.88060  1.0000
  C   C121      1.0  0.72400  0.19580  0.91670  1.0000
  H   H65       1.0  0.73760  0.21270  0.94090  1.0000
  C   C122      1.0  0.72640  0.14460  0.91680  1.0000
  H   H66       1.0  0.74100  0.12850  0.94100  1.0000
  C   C123      1.0  0.68510  0.14440  0.85080  1.0000
  H   H67       1.0  0.66880  0.12790  0.82780  1.0000
  C   C124      1.0  0.70730  0.11690  0.88120  1.0000
  C   C125      1.0  0.70270  0.22270  0.88300  1.0000
  C   C126      1.0  0.68340  0.19640  0.84960  1.0000
  H   H68       1.0  0.66880  0.21240  0.82540  1.0000
  O   O35       1.0  0.69540  0.04098  0.84620  1.0000
  O   O36       1.0  0.72880  0.04090  0.91220  1.0000
  N   N5        1.0  0.66960  0.75000  0.68670  1.0000
  H   H69       1.0  0.68680  0.75000  0.66240  1.0000
  C   C127      1.0  0.69920  0.60020  0.81170  1.0000
  O   O37       1.0  0.71150  0.61141  0.85190  1.0000
  O   O38       1.0  0.69520  0.55396  0.80360  1.0000
  C   C128      1.0  0.69090  0.63840  0.77850  1.0000
  C   C129      1.0  0.67660  0.70960  0.71470  1.0000
  C   C130      1.0  0.69370  0.68740  0.78940  1.0000
  H   H70       1.0  0.70140  0.69670  0.81870  1.0000
  C   C131      1.0  0.68530  0.72260  0.75760  1.0000
  C   C132      1.0  0.68020  0.62410  0.73430  1.0000
  H   H71       1.0  0.67740  0.59080  0.72730  1.0000
  C   C133      1.0  0.69920  0.89980  0.81170  1.0000
  C   C134      1.0  0.67400  0.65860  0.70190  1.0000
  H   H72       1.0  0.66820  0.64950  0.67220  1.0000
  O   O39       1.0  0.71150  0.88859  0.85190  1.0000
  O   O40       1.0  0.69520  0.94604  0.80360  1.0000
  C   C135      1.0  0.69090  0.86160  0.77850  1.0000
  C   C136      1.0  0.67660  0.79040  0.71470  1.0000
  C   C137      1.0  0.69370  0.81260  0.78940  1.0000
  H   H73       1.0  0.70140  0.80330  0.81870  1.0000
  C   C138      1.0  0.68530  0.77740  0.75760  1.0000
  C   C139      1.0  0.68020  0.87590  0.73430  1.0000
  H   H74       1.0  0.67740  0.90920  0.72730  1.0000
  C   C140      1.0  0.67400  0.84140  0.70190  1.0000
  H   H75       1.0  0.66820  0.85050  0.67220  1.0000
  C   C141      1.0  0.22640  0.64460  0.41680  1.0000
  H   H76       1.0  0.24100  0.62850  0.44100  1.0000
  C   C142      1.0  0.18510  0.64440  0.35080  1.0000
  H   H77       1.0  0.16880  0.62790  0.32780  1.0000
  C   C143      1.0  0.20730  0.61690  0.38120  1.0000
  C   C144      1.0  0.20270  0.72270  0.38300  1.0000
  C   C145      1.0  0.18340  0.69640  0.34960  1.0000
  H   H78       1.0  0.16880  0.71240  0.32540  1.0000
  O   O41       1.0  0.19540  0.54098  0.34620  1.0000
  O   O42       1.0  0.22880  0.54090  0.41220  1.0000
  C   C146      1.0  0.21190  0.93640  0.38060  1.0000
  C   C147      1.0  0.22400  0.80420  0.41670  1.0000
  H   H79       1.0  0.23760  0.78730  0.44090  1.0000
  C   C148      1.0  0.22640  0.85540  0.41680  1.0000
  H   H80       1.0  0.24100  0.87150  0.44100  1.0000
  C   C149      1.0  0.18510  0.85560  0.35080  1.0000
  H   H81       1.0  0.16880  0.87210  0.32780  1.0000
  C   C150      1.0  0.20730  0.88310  0.38120  1.0000
  C   C151      1.0  0.20270  0.77730  0.38300  1.0000
  C   C152      1.0  0.18340  0.80360  0.34960  1.0000
  H   H82       1.0  0.16880  0.78760  0.32540  1.0000
  O   O43       1.0  0.19540  0.95902  0.34620  1.0000
  O   O44       1.0  0.22880  0.95910  0.41220  1.0000
  C   C153      1.0  0.21190  0.56360  0.38060  1.0000
  C   C154      1.0  0.22400  0.69580  0.41670  1.0000
  H   H83       1.0  0.23760  0.71270  0.44090  1.0000
  C   C155      1.0  0.19920  0.39980  0.31170  1.0000
  O   O45       1.0  0.21150  0.38859  0.35190  1.0000
  O   O46       1.0  0.19520  0.44604  0.30360  1.0000
  C   C156      1.0  0.19090  0.36160  0.27850  1.0000
  C   C157      1.0  0.17660  0.29040  0.21470  1.0000
  C   C158      1.0  0.19370  0.31260  0.28940  1.0000
  H   H84       1.0  0.20140  0.30330  0.31870  1.0000
  C   C159      1.0  0.18530  0.27740  0.25760  1.0000
  C   C160      1.0  0.18020  0.37590  0.23430  1.0000
  H   H85       1.0  0.17740  0.40920  0.22730  1.0000
  C   C161      1.0  0.17400  0.34140  0.20190  1.0000
  H   H86       1.0  0.16820  0.35050  0.17220  1.0000
  C   C162      1.0  0.19920  0.10020  0.31170  1.0000
  O   O47       1.0  0.21150  0.11141  0.35190  1.0000
  O   O48       1.0  0.19520  0.05396  0.30360  1.0000
  N   N6        1.0  0.16960  0.25000  0.18670  1.0000
  C   C163      1.0  0.17660  0.20960  0.21470  1.0000
  C   C164      1.0  0.19090  0.13840  0.27850  1.0000
  H   H87       1.0  0.18680  0.25000  0.16240  1.0000
  C   C165      1.0  0.18530  0.22260  0.25760  1.0000
  C   C166      1.0  0.19370  0.18740  0.28940  1.0000
  H   H88       1.0  0.20140  0.19670  0.31870  1.0000
  C   C167      1.0  0.17400  0.15860  0.20190  1.0000
  C   C168      1.0  0.18020  0.12410  0.23430  1.0000
  H   H89       1.0  0.16820  0.14950  0.17220  1.0000
  H   H90       1.0  0.17740  0.09080  0.22730  1.0000
  C   C169      1.0  0.78810  0.56360  0.38060  1.0000
  C   C170      1.0  0.77600  0.69580  0.41670  1.0000
  H   H91       1.0  0.76240  0.71270  0.44090  1.0000
  C   C171      1.0  0.77360  0.64460  0.41680  1.0000
  H   H92       1.0  0.75900  0.62850  0.44100  1.0000
  C   C172      1.0  0.81490  0.64440  0.35080  1.0000
  H   H93       1.0  0.83120  0.62790  0.32780  1.0000
  C   C173      1.0  0.79270  0.61690  0.38120  1.0000
  C   C174      1.0  0.79730  0.72270  0.38300  1.0000
  C   C175      1.0  0.81660  0.69640  0.34960  1.0000
  H   H94       1.0  0.83120  0.71240  0.32540  1.0000
  O   O49       1.0  0.80460  0.54098  0.34620  1.0000
  O   O50       1.0  0.77120  0.54090  0.41220  1.0000
  C   C176      1.0  0.78810  0.93640  0.38060  1.0000
  C   C177      1.0  0.77600  0.80420  0.41670  1.0000
  H   H95       1.0  0.76240  0.78730  0.44090  1.0000
  C   C178      1.0  0.77360  0.85540  0.41680  1.0000
  H   H96       1.0  0.75900  0.87150  0.44100  1.0000
  C   C179      1.0  0.81490  0.85560  0.35080  1.0000
  H   H97       1.0  0.83120  0.87210  0.32780  1.0000
  C   C180      1.0  0.79270  0.88310  0.38120  1.0000
  C   C181      1.0  0.79730  0.77730  0.38300  1.0000
  C   C182      1.0  0.81660  0.80360  0.34960  1.0000
  H   H98       1.0  0.83120  0.78760  0.32540  1.0000
  O   O51       1.0  0.80460  0.95902  0.34620  1.0000
  O   O52       1.0  0.77120  0.95910  0.41220  1.0000
  C   C183      1.0  0.80080  0.39980  0.31170  1.0000
  O   O53       1.0  0.78850  0.38859  0.35190  1.0000
  O   O54       1.0  0.80480  0.44604  0.30360  1.0000
  C   C184      1.0  0.80910  0.36160  0.27850  1.0000
  C   C185      1.0  0.82340  0.29040  0.21470  1.0000
  C   C186      1.0  0.80630  0.31260  0.28940  1.0000
  H   H99       1.0  0.79860  0.30330  0.31870  1.0000
  C   C187      1.0  0.81470  0.27740  0.25760  1.0000
  C   C188      1.0  0.81980  0.37590  0.23430  1.0000
  H   H100      1.0  0.82260  0.40920  0.22730  1.0000
  C   C189      1.0  0.82600  0.34140  0.20190  1.0000
  C   C190      1.0  0.80080  0.10020  0.31170  1.0000
  H   H101      1.0  0.83180  0.35050  0.17220  1.0000
  O   O55       1.0  0.78850  0.11141  0.35190  1.0000
  O   O56       1.0  0.80480  0.05396  0.30360  1.0000
  C   C191      1.0  0.80910  0.13840  0.27850  1.0000
  C   C192      1.0  0.82340  0.20960  0.21470  1.0000
  C   C193      1.0  0.80630  0.18740  0.28940  1.0000
  H   H102      1.0  0.79860  0.19670  0.31870  1.0000
  C   C194      1.0  0.81470  0.22260  0.25760  1.0000
  C   C195      1.0  0.81980  0.12410  0.23430  1.0000
  H   H103      1.0  0.82260  0.09080  0.22730  1.0000
  C   C196      1.0  0.82600  0.15860  0.20190  1.0000
  H   H104      1.0  0.83180  0.14950  0.17220  1.0000
  N   N7        1.0  0.83040  0.25000  0.18670  1.0000
  H   H105      1.0  0.81320  0.25000  0.16240  1.0000
  C   C197      1.0  0.28810  0.43640  0.88060  1.0000
  C   C198      1.0  0.27600  0.30420  0.91670  1.0000
  H   H106      1.0  0.26240  0.28730  0.94090  1.0000
  C   C199      1.0  0.27360  0.35540  0.91680  1.0000
  H   H107      1.0  0.25900  0.37150  0.94100  1.0000
  C   C200      1.0  0.31490  0.35560  0.85080  1.0000
  H   H108      1.0  0.33120  0.37210  0.82780  1.0000
  C   C201      1.0  0.29270  0.38310  0.88120  1.0000
  C   C202      1.0  0.29730  0.27730  0.88300  1.0000
  C   C203      1.0  0.31660  0.30360  0.84960  1.0000
  H   H109      1.0  0.33120  0.28760  0.82540  1.0000
  O   O57       1.0  0.30460  0.45902  0.84620  1.0000
  O   O58       1.0  0.27120  0.45910  0.91220  1.0000
  C   C204      1.0  0.28810  0.06360  0.88060  1.0000
  C   C205      1.0  0.27600  0.19580  0.91670  1.0000
  H   H110      1.0  0.26240  0.21270  0.94090  1.0000
  C   C206      1.0  0.27360  0.14460  0.91680  1.0000
  H   H111      1.0  0.25900  0.12850  0.94100  1.0000
  C   C207      1.0  0.31490  0.14440  0.85080  1.0000
  H   H112      1.0  0.33120  0.12790  0.82780  1.0000
  C   C208      1.0  0.29270  0.11690  0.88120  1.0000
  C   C209      1.0  0.29730  0.22270  0.88300  1.0000
  C   C210      1.0  0.31660  0.19640  0.84960  1.0000
  H   H113      1.0  0.33120  0.21240  0.82540  1.0000
  O   O59       1.0  0.30460  0.04098  0.84620  1.0000
  O   O60       1.0  0.27120  0.04090  0.91220  1.0000
  C   C211      1.0  0.30630  0.81260  0.78940  1.0000
  H   H114      1.0  0.29860  0.80330  0.81870  1.0000
  C   C212      1.0  0.31470  0.77740  0.75760  1.0000
  C   C213      1.0  0.31980  0.87590  0.73430  1.0000
  H   H115      1.0  0.32260  0.90920  0.72730  1.0000
  C   C214      1.0  0.32600  0.84140  0.70190  1.0000
  H   H116      1.0  0.33180  0.85050  0.67220  1.0000
  C   C215      1.0  0.30080  0.60020  0.81170  1.0000
  O   O61       1.0  0.28850  0.61141  0.85190  1.0000
  O   O62       1.0  0.30480  0.55396  0.80360  1.0000
  C   C216      1.0  0.30910  0.63840  0.77850  1.0000
  C   C217      1.0  0.32340  0.70960  0.71470  1.0000
  C   C218      1.0  0.30630  0.68740  0.78940  1.0000
  H   H117      1.0  0.29860  0.69670  0.81870  1.0000
  C   C219      1.0  0.31470  0.72260  0.75760  1.0000
  C   C220      1.0  0.31980  0.62410  0.73430  1.0000
  H   H118      1.0  0.32260  0.59080  0.72730  1.0000
  C   C221      1.0  0.32600  0.65860  0.70190  1.0000
  H   H119      1.0  0.33180  0.64950  0.67220  1.0000
  N   N8        1.0  0.33040  0.75000  0.68670  1.0000
  H   H120      1.0  0.31320  0.75000  0.66240  1.0000
  C   C222      1.0  0.30080  0.89980  0.81170  1.0000
  O   O63       1.0  0.28850  0.88859  0.85190  1.0000
  O   O64       1.0  0.30480  0.94604  0.80360  1.0000
  C   C223      1.0  0.30910  0.86160  0.77850  1.0000
  C   C224      1.0  0.32340  0.79040  0.71470  1.0000
  C   C225      1.0  0.94640  0.56660  0.90040  1.0000
  O   O65       1.0  0.79098  0.55460  0.90380  1.0000
  C   C226      1.0  0.81360  0.53810  0.86940  1.0000
  C   C227      1.0  0.94580  0.52600  0.83330  1.0000
  H   H121      1.0  0.96270  0.51240  0.80910  1.0000
  C   C228      1.0  0.89460  0.52360  0.83320  1.0000
  H   H122      1.0  0.87850  0.50900  0.80900  1.0000
  C   C229      1.0  0.89440  0.56490  0.89920  1.0000
  C   C230      1.0  0.18640  0.53810  0.86940  1.0000
  C   C231      1.0  0.05420  0.52600  0.83330  1.0000
  H   H123      1.0  0.03730  0.51240  0.80910  1.0000
  C   C232      1.0  0.10540  0.52360  0.83320  1.0000
  H   H124      1.0  0.12150  0.50900  0.80900  1.0000
  C   C233      1.0  0.10560  0.56490  0.89920  1.0000
  H   H125      1.0  0.12210  0.58120  0.92220  1.0000
  C   C234      1.0  0.13310  0.54270  0.86880  1.0000
  C   C235      1.0  0.97270  0.54730  0.86700  1.0000
  C   C236      1.0  0.02730  0.54730  0.86700  1.0000
  C   C237      1.0  0.05360  0.56660  0.90040  1.0000
  H   H126      1.0  0.03760  0.58120  0.92460  1.0000
  O   O66       1.0  0.20902  0.55460  0.90380  1.0000
  O   O67       1.0  0.20910  0.52120  0.83780  1.0000
  H   H127      1.0  0.96240  0.58120  0.92460  1.0000
  O   O68       1.0  0.79090  0.52120  0.83780  1.0000
  H   H128      1.0  0.87790  0.58120  0.92220  1.0000
  C   C238      1.0  0.86690  0.54270  0.86880  1.0000
  O   O69       1.0  0.69604  0.55480  0.94640  1.0000
  N   N9        1.0  0.50000  0.58040  0.06330  1.0000
  H   H129      1.0  0.50000  0.56320  0.08760  1.0000
  C   C239      1.0  0.62590  0.56980  0.01570  1.0000
  H   H130      1.0  0.65920  0.57260  0.02270  1.0000
  C   C240      1.0  0.64980  0.55080  0.93830  1.0000
  C   C241      1.0  0.35020  0.55080  0.93830  1.0000
  O   O70       1.0  0.63859  0.53850  0.89810  1.0000
  C   C242      1.0  0.61160  0.55910  0.97150  1.0000
  C   C243      1.0  0.54040  0.57340  0.03530  1.0000
  C   C244      1.0  0.56260  0.55630  0.96060  1.0000
  H   H131      1.0  0.55330  0.54860  0.93130  1.0000
  C   C245      1.0  0.52740  0.56470  0.99240  1.0000
  O   O71       1.0  0.36141  0.53850  0.89810  1.0000
  O   O72       1.0  0.30396  0.55480  0.94640  1.0000
  C   C246      1.0  0.59140  0.57600  0.04810  1.0000
  C   C247      1.0  0.38840  0.55910  0.97150  1.0000
  C   C248      1.0  0.45960  0.57340  0.03530  1.0000
  C   C249      1.0  0.43740  0.55630  0.96060  1.0000
  H   H132      1.0  0.44670  0.54860  0.93130  1.0000
  C   C250      1.0  0.47260  0.56470  0.99240  1.0000
  C   C251      1.0  0.37410  0.56980  0.01570  1.0000
  H   H133      1.0  0.39950  0.58180  0.07780  1.0000
  H   H134      1.0  0.34080  0.57260  0.02270  1.0000
  C   C252      1.0  0.40860  0.57600  0.04810  1.0000
  H   H135      1.0  0.60050  0.58180  0.07780  1.0000
  C   C253      1.0  0.44640  0.06660  0.40040  1.0000
  O   O73       1.0  0.29098  0.05460  0.40380  1.0000
  C   C254      1.0  0.31360  0.03810  0.36940  1.0000
  C   C255      1.0  0.44580  0.02600  0.33330  1.0000
  H   H136      1.0  0.46270  0.01240  0.30910  1.0000
  C   C256      1.0  0.39460  0.02360  0.33320  1.0000
  H   H137      1.0  0.37850  0.00900  0.30900  1.0000
  C   C257      1.0  0.39440  0.06490  0.39920  1.0000
  C   C258      1.0  0.68640  0.03810  0.36940  1.0000
  C   C259      1.0  0.55420  0.02600  0.33330  1.0000
  H   H138      1.0  0.53730  0.01240  0.30910  1.0000
  C   C260      1.0  0.60540  0.02360  0.33320  1.0000
  H   H139      1.0  0.62150  0.00900  0.30900  1.0000
  C   C261      1.0  0.60560  0.06490  0.39920  1.0000
  H   H140      1.0  0.62210  0.08120  0.42220  1.0000
  C   C262      1.0  0.63310  0.04270  0.36880  1.0000
  C   C263      1.0  0.47270  0.04730  0.36700  1.0000
  C   C264      1.0  0.52730  0.04730  0.36700  1.0000
  C   C265      1.0  0.55360  0.06660  0.40040  1.0000
  H   H141      1.0  0.53760  0.08120  0.42460  1.0000
  O   O74       1.0  0.70902  0.05460  0.40380  1.0000
  O   O75       1.0  0.70910  0.02120  0.33780  1.0000
  H   H142      1.0  0.46240  0.08120  0.42460  1.0000
  O   O76       1.0  0.29090  0.02120  0.33780  1.0000
  H   H143      1.0  0.37790  0.08120  0.42220  1.0000
  C   C266      1.0  0.36690  0.04270  0.36880  1.0000
  O   O77       1.0  0.19604  0.05480  0.44640  1.0000
  C   C267      1.0  0.02740  0.06470  0.49240  1.0000
  N   N10       1.0  0.00000  0.08040  0.56330  1.0000
  H   H144      1.0  0.00000  0.06320  0.58760  1.0000
  C   C268      1.0  0.12590  0.06980  0.51570  1.0000
  H   H145      1.0  0.15920  0.07260  0.52270  1.0000
  C   C269      1.0  0.14980  0.05080  0.43830  1.0000
  C   C270      1.0  0.85020  0.05080  0.43830  1.0000
  O   O78       1.0  0.13859  0.03850  0.39810  1.0000
  C   C271      1.0  0.11160  0.05910  0.47150  1.0000
  C   C272      1.0  0.04040  0.07340  0.53530  1.0000
  C   C273      1.0  0.06260  0.05630  0.46060  1.0000
  H   H146      1.0  0.05330  0.04860  0.43130  1.0000
  O   O79       1.0  0.86141  0.03850  0.39810  1.0000
  O   O80       1.0  0.80396  0.05480  0.44640  1.0000
  C   C274      1.0  0.88840  0.05910  0.47150  1.0000
  C   C275      1.0  0.95960  0.07340  0.53530  1.0000
  C   C276      1.0  0.93740  0.05630  0.46060  1.0000
  H   H147      1.0  0.94670  0.04860  0.43130  1.0000
  C   C277      1.0  0.97260  0.06470  0.49240  1.0000
  C   C278      1.0  0.87410  0.06980  0.51570  1.0000
  H   H148      1.0  0.84080  0.07260  0.52270  1.0000
  C   C279      1.0  0.90860  0.07600  0.54810  1.0000
  H   H149      1.0  0.89950  0.08180  0.57780  1.0000
  C   C280      1.0  0.09140  0.07600  0.54810  1.0000
  H   H150      1.0  0.10050  0.08180  0.57780  1.0000
  H   H151      1.0  0.37790  0.41880  0.42220  1.0000
  C   C281      1.0  0.36690  0.45730  0.36880  1.0000
  C   C282      1.0  0.47270  0.45270  0.36700  1.0000
  C   C283      1.0  0.44640  0.43340  0.40040  1.0000
  H   H152      1.0  0.46240  0.41880  0.42460  1.0000
  O   O81       1.0  0.29098  0.44540  0.40380  1.0000
  O   O82       1.0  0.29090  0.47880  0.33780  1.0000
  C   C284      1.0  0.68640  0.46190  0.36940  1.0000
  C   C285      1.0  0.55420  0.47400  0.33330  1.0000
  H   H153      1.0  0.53730  0.48760  0.30910  1.0000
  C   C286      1.0  0.60540  0.47640  0.33320  1.0000
  H   H154      1.0  0.62150  0.49100  0.30900  1.0000
  C   C287      1.0  0.60560  0.43510  0.39920  1.0000
  H   H155      1.0  0.62210  0.41880  0.42220  1.0000
  C   C288      1.0  0.63310  0.45730  0.36880  1.0000
  C   C289      1.0  0.52730  0.45270  0.36700  1.0000
  C   C290      1.0  0.55360  0.43340  0.40040  1.0000
  H   H156      1.0  0.53760  0.41880  0.42460  1.0000
  O   O83       1.0  0.70902  0.44540  0.40380  1.0000
  O   O84       1.0  0.70910  0.47880  0.33780  1.0000
  C   C291      1.0  0.31360  0.46190  0.36940  1.0000
  C   C292      1.0  0.44580  0.47400  0.33330  1.0000
  H   H157      1.0  0.46270  0.48760  0.30910  1.0000
  C   C293      1.0  0.39460  0.47640  0.33320  1.0000
  H   H158      1.0  0.37850  0.49100  0.30900  1.0000
  C   C294      1.0  0.39440  0.43510  0.39920  1.0000
  C   C295      1.0  0.14980  0.44920  0.43830  1.0000
  O   O85       1.0  0.13859  0.46150  0.39810  1.0000
  O   O86       1.0  0.19604  0.44520  0.44640  1.0000
  C   C296      1.0  0.11160  0.44090  0.47150  1.0000
  C   C297      1.0  0.04040  0.42660  0.53530  1.0000
  C   C298      1.0  0.06260  0.44370  0.46060  1.0000
  H   H159      1.0  0.05330  0.45140  0.43130  1.0000
  C   C299      1.0  0.02740  0.43530  0.49240  1.0000
  C   C300      1.0  0.12590  0.43020  0.51570  1.0000
  H   H160      1.0  0.15920  0.42740  0.52270  1.0000
  C   C301      1.0  0.09140  0.42400  0.54810  1.0000
  H   H161      1.0  0.10050  0.41820  0.57780  1.0000
  C   C302      1.0  0.85020  0.44920  0.43830  1.0000
  O   O87       1.0  0.86141  0.46150  0.39810  1.0000
  O   O88       1.0  0.80396  0.44520  0.44640  1.0000
  C   C303      1.0  0.88840  0.44090  0.47150  1.0000
  C   C304      1.0  0.95960  0.42660  0.53530  1.0000
  C   C305      1.0  0.93740  0.44370  0.46060  1.0000
  H   H162      1.0  0.94670  0.45140  0.43130  1.0000
  C   C306      1.0  0.97260  0.43530  0.49240  1.0000
  C   C307      1.0  0.87410  0.43020  0.51570  1.0000
  H   H163      1.0  0.84080  0.42740  0.52270  1.0000
  C   C308      1.0  0.90860  0.42400  0.54810  1.0000
  H   H164      1.0  0.89950  0.41820  0.57780  1.0000
  N   N11       1.0  0.00000  0.41960  0.56330  1.0000
  H   H165      1.0  0.00000  0.43680  0.58760  1.0000
  C   C309      1.0  0.81360  0.96190  0.86940  1.0000
  C   C310      1.0  0.94580  0.97400  0.83330  1.0000
  H   H166      1.0  0.96270  0.98760  0.80910  1.0000
  C   C311      1.0  0.89460  0.97640  0.83320  1.0000
  H   H167      1.0  0.87850  0.99100  0.80900  1.0000
  C   C312      1.0  0.89440  0.93510  0.89920  1.0000
  H   H168      1.0  0.87790  0.91880  0.92220  1.0000
  C   C313      1.0  0.86690  0.95730  0.86880  1.0000
  C   C314      1.0  0.97270  0.95270  0.86700  1.0000
  C   C315      1.0  0.94640  0.93340  0.90040  1.0000
  H   H169      1.0  0.96240  0.91880  0.92460  1.0000
  O   O89       1.0  0.79098  0.94540  0.90380  1.0000
  O   O90       1.0  0.79090  0.97880  0.83780  1.0000
  C   C316      1.0  0.18640  0.96190  0.86940  1.0000
  C   C317      1.0  0.05420  0.97400  0.83330  1.0000
  H   H170      1.0  0.03730  0.98760  0.80910  1.0000
  C   C318      1.0  0.10540  0.97640  0.83320  1.0000
  H   H171      1.0  0.12150  0.99100  0.80900  1.0000
  C   C319      1.0  0.10560  0.93510  0.89920  1.0000
  H   H172      1.0  0.12210  0.91880  0.92220  1.0000
  C   C320      1.0  0.13310  0.95730  0.86880  1.0000
  C   C321      1.0  0.02730  0.95270  0.86700  1.0000
  C   C322      1.0  0.05360  0.93340  0.90040  1.0000
  H   H173      1.0  0.03760  0.91880  0.92460  1.0000
  O   O91       1.0  0.20902  0.94540  0.90380  1.0000
  O   O92       1.0  0.20910  0.97880  0.83780  1.0000
  C   C323      1.0  0.64980  0.94920  0.93830  1.0000
  O   O93       1.0  0.63859  0.96150  0.89810  1.0000
  O   O94       1.0  0.69604  0.94520  0.94640  1.0000
  C   C324      1.0  0.61160  0.94090  0.97150  1.0000
  C   C325      1.0  0.54040  0.92660  0.03530  1.0000
  C   C326      1.0  0.56260  0.94370  0.96060  1.0000
  H   H174      1.0  0.55330  0.95140  0.93130  1.0000
  C   C327      1.0  0.52740  0.93530  0.99240  1.0000
  C   C328      1.0  0.62590  0.93020  0.01570  1.0000
  H   H175      1.0  0.65920  0.92740  0.02270  1.0000
  C   C329      1.0  0.59140  0.92400  0.04810  1.0000
  H   H176      1.0  0.60050  0.91820  0.07780  1.0000
  C   C330      1.0  0.35020  0.94920  0.93830  1.0000
  O   O95       1.0  0.36141  0.96150  0.89810  1.0000
  O   O96       1.0  0.30396  0.94520  0.94640  1.0000
  C   C331      1.0  0.38840  0.94090  0.97150  1.0000
  C   C332      1.0  0.45960  0.92660  0.03530  1.0000
  C   C333      1.0  0.43740  0.94370  0.96060  1.0000
  H   H177      1.0  0.44670  0.95140  0.93130  1.0000
  C   C334      1.0  0.47260  0.93530  0.99240  1.0000
  C   C335      1.0  0.37410  0.93020  0.01570  1.0000
  H   H178      1.0  0.34080  0.92740  0.02270  1.0000
  C   C336      1.0  0.40860  0.92400  0.04810  1.0000
  H   H179      1.0  0.39950  0.91820  0.07780  1.0000
  N   N12       1.0  0.50000  0.91960  0.06330  1.0000
  H   H180      1.0  0.50000  0.93680  0.08760  1.0000
  C   C337      1.0  0.78810  0.43640  0.61940  1.0000
  C   C338      1.0  0.77600  0.30420  0.58330  1.0000
  H   H181      1.0  0.76240  0.28730  0.55910  1.0000
  C   C339      1.0  0.77360  0.35540  0.58320  1.0000
  H   H182      1.0  0.75900  0.37150  0.55900  1.0000
  C   C340      1.0  0.81490  0.35560  0.64920  1.0000
  H   H183      1.0  0.83120  0.37210  0.67220  1.0000
  C   C341      1.0  0.79270  0.38310  0.61880  1.0000
  C   C342      1.0  0.79730  0.27730  0.61700  1.0000
  C   C343      1.0  0.81660  0.30360  0.65040  1.0000
  H   H184      1.0  0.83120  0.28760  0.67460  1.0000
  O   O97       1.0  0.80460  0.45902  0.65380  1.0000
  O   O98       1.0  0.77120  0.45910  0.58780  1.0000
  C   C344      1.0  0.78810  0.06360  0.61940  1.0000
  C   C345      1.0  0.77600  0.19580  0.58330  1.0000
  H   H185      1.0  0.76240  0.21270  0.55910  1.0000
  C   C346      1.0  0.77360  0.14460  0.58320  1.0000
  H   H186      1.0  0.75900  0.12850  0.55900  1.0000
  C   C347      1.0  0.81490  0.14440  0.64920  1.0000
  H   H187      1.0  0.83120  0.12790  0.67220  1.0000
  C   C348      1.0  0.79270  0.11690  0.61880  1.0000
  C   C349      1.0  0.79730  0.22270  0.61700  1.0000
  C   C350      1.0  0.81660  0.19640  0.65040  1.0000
  H   H188      1.0  0.83120  0.21240  0.67460  1.0000
  O   O99       1.0  0.80460  0.04098  0.65380  1.0000
  O   O100      1.0  0.77120  0.04090  0.58780  1.0000
  C   C351      1.0  0.80080  0.60020  0.68830  1.0000
  O   O101      1.0  0.78850  0.61141  0.64810  1.0000
  O   O102      1.0  0.80480  0.55396  0.69640  1.0000
  C   C352      1.0  0.80910  0.63840  0.72150  1.0000
  C   C353      1.0  0.82340  0.70960  0.78530  1.0000
  C   C354      1.0  0.80630  0.68740  0.71060  1.0000
  H   H189      1.0  0.79860  0.69670  0.68130  1.0000
  C   C355      1.0  0.81470  0.72260  0.74240  1.0000
  C   C356      1.0  0.81980  0.62410  0.76570  1.0000
  H   H190      1.0  0.82260  0.59080  0.77270  1.0000
  C   C357      1.0  0.82600  0.65860  0.79810  1.0000
  H   H191      1.0  0.83180  0.64950  0.82780  1.0000
  C   C358      1.0  0.80080  0.89980  0.68830  1.0000
  O   O103      1.0  0.78850  0.88859  0.64810  1.0000
  O   O104      1.0  0.80480  0.94604  0.69640  1.0000
  C   C359      1.0  0.80910  0.86160  0.72150  1.0000
  C   C360      1.0  0.82340  0.79040  0.78530  1.0000
  C   C361      1.0  0.80630  0.81260  0.71060  1.0000
  H   H192      1.0  0.79860  0.80330  0.68130  1.0000
  C   C362      1.0  0.81470  0.77740  0.74240  1.0000
  C   C363      1.0  0.81980  0.87590  0.76570  1.0000
  H   H193      1.0  0.82260  0.90920  0.77270  1.0000
  C   C364      1.0  0.82600  0.84140  0.79810  1.0000
  H   H194      1.0  0.83180  0.85050  0.82780  1.0000
  N   N13       1.0  0.83040  0.75000  0.81330  1.0000
  H   H195      1.0  0.81320  0.75000  0.83760  1.0000
  O   O105      1.0  0.30460  0.95902  0.15380  1.0000
  O   O106      1.0  0.27120  0.95910  0.08780  1.0000
  C   C365      1.0  0.28810  0.56360  0.11940  1.0000
  C   C366      1.0  0.27600  0.69580  0.08330  1.0000
  H   H196      1.0  0.26240  0.71270  0.05910  1.0000
  C   C367      1.0  0.27360  0.64460  0.08320  1.0000
  H   H197      1.0  0.25900  0.62850  0.05900  1.0000
  C   C368      1.0  0.31490  0.64440  0.14920  1.0000
  H   H198      1.0  0.33120  0.62790  0.17220  1.0000
  C   C369      1.0  0.29270  0.61690  0.11880  1.0000
  C   C370      1.0  0.29730  0.72270  0.11700  1.0000
  C   C371      1.0  0.31660  0.69640  0.15040  1.0000
  H   H199      1.0  0.33120  0.71240  0.17460  1.0000
  O   O107      1.0  0.30460  0.54098  0.15380  1.0000
  O   O108      1.0  0.27120  0.54090  0.08780  1.0000
  C   C372      1.0  0.28810  0.93640  0.11940  1.0000
  C   C373      1.0  0.27600  0.80420  0.08330  1.0000
  H   H200      1.0  0.26240  0.78730  0.05910  1.0000
  C   C374      1.0  0.27360  0.85540  0.08320  1.0000
  H   H201      1.0  0.25900  0.87150  0.05900  1.0000
  C   C375      1.0  0.31490  0.85560  0.14920  1.0000
  H   H202      1.0  0.33120  0.87210  0.17220  1.0000
  C   C376      1.0  0.29270  0.88310  0.11880  1.0000
  C   C377      1.0  0.29730  0.77730  0.11700  1.0000
  C   C378      1.0  0.31660  0.80360  0.15040  1.0000
  H   H203      1.0  0.33120  0.78760  0.17460  1.0000
  O   O109      1.0  0.28850  0.11141  0.14810  1.0000
  O   O110      1.0  0.30480  0.05396  0.19640  1.0000
  C   C379      1.0  0.30910  0.13840  0.22150  1.0000
  C   C380      1.0  0.32340  0.20960  0.28530  1.0000
  C   C381      1.0  0.30630  0.18740  0.21060  1.0000
  H   H204      1.0  0.29860  0.19670  0.18130  1.0000
  C   C382      1.0  0.31470  0.22260  0.24240  1.0000
  C   C383      1.0  0.31980  0.12410  0.26570  1.0000
  H   H205      1.0  0.32260  0.09080  0.27270  1.0000
  C   C384      1.0  0.32600  0.15860  0.29810  1.0000
  H   H206      1.0  0.33180  0.14950  0.32780  1.0000
  N   N14       1.0  0.33040  0.25000  0.31330  1.0000
  H   H207      1.0  0.31320  0.25000  0.33760  1.0000
  C   C385      1.0  0.30080  0.39980  0.18830  1.0000
  O   O111      1.0  0.28850  0.38859  0.14810  1.0000
  O   O112      1.0  0.30480  0.44604  0.19640  1.0000
  C   C386      1.0  0.30910  0.36160  0.22150  1.0000
  C   C387      1.0  0.32340  0.29040  0.28530  1.0000
  C   C388      1.0  0.30630  0.31260  0.21060  1.0000
  H   H208      1.0  0.29860  0.30330  0.18130  1.0000
  C   C389      1.0  0.31470  0.27740  0.24240  1.0000
  C   C390      1.0  0.31980  0.37590  0.26570  1.0000
  H   H209      1.0  0.32260  0.40920  0.27270  1.0000
  C   C391      1.0  0.32600  0.34140  0.29810  1.0000
  H   H210      1.0  0.33180  0.35050  0.32780  1.0000
  C   C392      1.0  0.30080  0.10020  0.18830  1.0000
  C   C393      1.0  0.71190  0.56360  0.11940  1.0000
  C   C394      1.0  0.72400  0.69580  0.08330  1.0000
  H   H211      1.0  0.73760  0.71270  0.05910  1.0000
  C   C395      1.0  0.72640  0.64460  0.08320  1.0000
  H   H212      1.0  0.74100  0.62850  0.05900  1.0000
  C   C396      1.0  0.68510  0.64440  0.14920  1.0000
  H   H213      1.0  0.66880  0.62790  0.17220  1.0000
  C   C397      1.0  0.70730  0.61690  0.11880  1.0000
  C   C398      1.0  0.70270  0.72270  0.11700  1.0000
  C   C399      1.0  0.68340  0.69640  0.15040  1.0000
  H   H214      1.0  0.66880  0.71240  0.17460  1.0000
  O   O113      1.0  0.69540  0.54098  0.15380  1.0000
  O   O114      1.0  0.72880  0.54090  0.08780  1.0000
  C   C400      1.0  0.71190  0.93640  0.11940  1.0000
  C   C401      1.0  0.72400  0.80420  0.08330  1.0000
  H   H215      1.0  0.73760  0.78730  0.05910  1.0000
  C   C402      1.0  0.72640  0.85540  0.08320  1.0000
  H   H216      1.0  0.74100  0.87150  0.05900  1.0000
  C   C403      1.0  0.68510  0.85560  0.14920  1.0000
  H   H217      1.0  0.66880  0.87210  0.17220  1.0000
  C   C404      1.0  0.70730  0.88310  0.11880  1.0000
  C   C405      1.0  0.70270  0.77730  0.11700  1.0000
  C   C406      1.0  0.68340  0.80360  0.15040  1.0000
  H   H218      1.0  0.66880  0.78760  0.17460  1.0000
  O   O115      1.0  0.69540  0.95902  0.15380  1.0000
  O   O116      1.0  0.72880  0.95910  0.08780  1.0000
  N   N15       1.0  0.66960  0.25000  0.31330  1.0000
  H   H219      1.0  0.68680  0.25000  0.33760  1.0000
  C   C407      1.0  0.69920  0.39980  0.18830  1.0000
  O   O117      1.0  0.71150  0.38859  0.14810  1.0000
  O   O118      1.0  0.69520  0.44604  0.19640  1.0000
  C   C408      1.0  0.69090  0.36160  0.22150  1.0000
  C   C409      1.0  0.67660  0.29040  0.28530  1.0000
  C   C410      1.0  0.69370  0.31260  0.21060  1.0000
  H   H220      1.0  0.70140  0.30330  0.18130  1.0000
  C   C411      1.0  0.68530  0.27740  0.24240  1.0000
  C   C412      1.0  0.68020  0.37590  0.26570  1.0000
  H   H221      1.0  0.67740  0.40920  0.27270  1.0000
  C   C413      1.0  0.67400  0.34140  0.29810  1.0000
  H   H222      1.0  0.66820  0.35050  0.32780  1.0000
  C   C414      1.0  0.69920  0.10020  0.18830  1.0000
  O   O119      1.0  0.71150  0.11141  0.14810  1.0000
  O   O120      1.0  0.69520  0.05396  0.19640  1.0000
  C   C415      1.0  0.69090  0.13840  0.22150  1.0000
  C   C416      1.0  0.67660  0.20960  0.28530  1.0000
  C   C417      1.0  0.69370  0.18740  0.21060  1.0000
  H   H223      1.0  0.70140  0.19670  0.18130  1.0000
  C   C418      1.0  0.68530  0.22260  0.24240  1.0000
  C   C419      1.0  0.68020  0.12410  0.26570  1.0000
  H   H224      1.0  0.67740  0.09080  0.27270  1.0000
  C   C420      1.0  0.67400  0.15860  0.29810  1.0000
  H   H225      1.0  0.66820  0.14950  0.32780  1.0000
  C   C421      1.0  0.20270  0.27730  0.61700  1.0000
  C   C422      1.0  0.18340  0.30360  0.65040  1.0000
  H   H226      1.0  0.16880  0.28760  0.67460  1.0000
  O   O121      1.0  0.19540  0.45902  0.65380  1.0000
  O   O122      1.0  0.22880  0.45910  0.58780  1.0000
  C   C423      1.0  0.21190  0.06360  0.61940  1.0000
  C   C424      1.0  0.22400  0.19580  0.58330  1.0000
  H   H227      1.0  0.23760  0.21270  0.55910  1.0000
  C   C425      1.0  0.22640  0.14460  0.58320  1.0000
  H   H228      1.0  0.24100  0.12850  0.55900  1.0000
  C   C426      1.0  0.18510  0.14440  0.64920  1.0000
  H   H229      1.0  0.16880  0.12790  0.67220  1.0000
  C   C427      1.0  0.20730  0.11690  0.61880  1.0000
  C   C428      1.0  0.20270  0.22270  0.61700  1.0000
  C   C429      1.0  0.18340  0.19640  0.65040  1.0000
  H   H230      1.0  0.16880  0.21240  0.67460  1.0000
  O   O123      1.0  0.19540  0.04098  0.65380  1.0000
  O   O124      1.0  0.22880  0.04090  0.58780  1.0000
  C   C430      1.0  0.21190  0.43640  0.61940  1.0000
  C   C431      1.0  0.22400  0.30420  0.58330  1.0000
  H   H231      1.0  0.23760  0.28730  0.55910  1.0000
  C   C432      1.0  0.22640  0.35540  0.58320  1.0000
  H   H232      1.0  0.24100  0.37150  0.55900  1.0000
  C   C433      1.0  0.18510  0.35560  0.64920  1.0000
  H   H233      1.0  0.16880  0.37210  0.67220  1.0000
  C   C434      1.0  0.20730  0.38310  0.61880  1.0000
  O   O125      1.0  0.21150  0.61141  0.64810  1.0000
  O   O126      1.0  0.19520  0.55396  0.69640  1.0000
  C   C435      1.0  0.19090  0.63840  0.72150  1.0000
  C   C436      1.0  0.17660  0.70960  0.78530  1.0000
  C   C437      1.0  0.19370  0.68740  0.71060  1.0000
  H   H234      1.0  0.20140  0.69670  0.68130  1.0000
  C   C438      1.0  0.18530  0.72260  0.74240  1.0000
  C   C439      1.0  0.18020  0.62410  0.76570  1.0000
  H   H235      1.0  0.17740  0.59080  0.77270  1.0000
  C   C440      1.0  0.17400  0.65860  0.79810  1.0000
  H   H236      1.0  0.16820  0.64950  0.82780  1.0000
  C   C441      1.0  0.19920  0.89980  0.68830  1.0000
  O   O127      1.0  0.21150  0.88859  0.64810  1.0000
  O   O128      1.0  0.19520  0.94604  0.69640  1.0000
  C   C442      1.0  0.19090  0.86160  0.72150  1.0000
  C   C443      1.0  0.17660  0.79040  0.78530  1.0000
  C   C444      1.0  0.19370  0.81260  0.71060  1.0000
  H   H237      1.0  0.20140  0.80330  0.68130  1.0000
  C   C445      1.0  0.18530  0.77740  0.74240  1.0000
  C   C446      1.0  0.18020  0.87590  0.76570  1.0000
  H   H238      1.0  0.17740  0.90920  0.77270  1.0000
  C   C447      1.0  0.17400  0.84140  0.79810  1.0000
  H   H239      1.0  0.16820  0.85050  0.82780  1.0000
  N   N16       1.0  0.16960  0.75000  0.81330  1.0000
  H   H240      1.0  0.18680  0.75000  0.83760  1.0000
  C   C448      1.0  0.19920  0.60020  0.68830  1.0000
  In  In1       1.0  0.21669  0.53331  0.62500  1.0000
  In  In2       1.0  0.28331  0.46669  0.12500  1.0000
  In  In3       1.0  0.71669  0.96669  0.87500  1.0000
  In  In4       1.0  0.78331  0.03331  0.37500  1.0000
  In  In5       1.0  0.28331  0.53331  0.87500  1.0000
  In  In6       1.0  0.21669  0.46669  0.37500  1.0000
  In  In7       1.0  0.78331  0.96669  0.62500  1.0000
  In  In8       1.0  0.71669  0.03331  0.12500  1.0000
  In  In9       1.0  0.78331  0.46669  0.37500  1.0000
  In  In10      1.0  0.71669  0.53331  0.87500  1.0000
  In  In11      1.0  0.28331  0.03331  0.12500  1.0000
  In  In12      1.0  0.21669  0.96669  0.62500  1.0000
  In  In13      1.0  0.71669  0.46669  0.12500  1.0000
  In  In14      1.0  0.78331  0.53331  0.62500  1.0000
  In  In15      1.0  0.21669  0.03331  0.37500  1.0000
  In  In16      1.0  0.28331  0.96669  0.87500  1.0000
