data_image0
_chemical_formula_structural       N2C4HC2HCHCHC2HCHC4HCHCHC2HC2HCHPO3PO2HON2C4HC2HCHCHC2HCHC4HCHCHC2HC2HCHPO3PO2HON2C4HC2HCHCHC2HCHC4HCHCHC2HC2HCHPO3PO2HON2C4HC2HCHCHC2HCHC4HCHCHC2HC2HCHPO3PO2HOPdZnPdZn3
_chemical_formula_sum              "N8 C88 H52 P8 O24 Pd2 Zn4"
_cell_length_a       16.7352
_cell_length_b       13.4138
_cell_length_c       11.1222
_cell_angle_alpha    90
_cell_angle_beta     95.996
_cell_angle_gamma    90

_space_group_name_H-M_alt    "P 1"
_space_group_IT_number       1

loop_
  _space_group_symop_operation_xyz
  'x, y, z'

loop_
  _atom_site_type_symbol
  _atom_site_label
  _atom_site_symmetry_multiplicity
  _atom_site_fract_x
  _atom_site_fract_y
  _atom_site_fract_z
  _atom_site_occupancy
  N   N1        1.0  0.49430  0.63530  0.58520  1.0000
  N   N2        1.0  0.40490  0.45140  0.59330  1.0000
  C   C1        1.0  0.44310  0.66660  0.66760  1.0000
  C   C2        1.0  0.38120  0.60910  0.70700  1.0000
  C   C3        1.0  0.32540  0.65460  0.78720  1.0000
  C   C4        1.0  0.24490  0.66730  0.74030  1.0000
  H   H1        1.0  0.22770  0.64620  0.66220  1.0000
  C   C5        1.0  0.19160  0.71100  0.81010  1.0000
  C   C6        1.0  0.21710  0.74360  0.92740  1.0000
  H   H2        1.0  0.18030  0.77020  0.97570  1.0000
  C   C7        1.0  0.29730  0.73600  0.97090  1.0000
  H   H3        1.0  0.31480  0.75940  0.04790  1.0000
  C   C8        1.0  0.35240  0.69300  0.89910  1.0000
  H   H4        1.0  0.40680  0.69050  0.92690  1.0000
  C   C9        1.0  0.36180  0.50700  0.67210  1.0000
  C   C10       1.0  0.29550  0.44680  0.70730  1.0000
  H   H5        1.0  0.25780  0.46690  0.75810  1.0000
  C   C11       1.0  0.29820  0.35910  0.65480  1.0000
  H   H6        1.0  0.26310  0.30630  0.66230  1.0000
  C   C12       1.0  0.36500  0.35970  0.58390  1.0000
  C   C13       1.0  0.38810  0.28060  0.51710  1.0000
  C   C14       1.0  0.34530  0.18420  0.52990  1.0000
  C   C15       1.0  0.38260  0.10450  0.59050  1.0000
  H   H7        1.0  0.43740  0.10690  0.61530  1.0000
  C   C16       1.0  0.33780  0.01940  0.61490  1.0000
  H   H8        1.0  0.36160  0.96720  0.66050  1.0000
  C   C17       1.0  0.25690  0.01490  0.56930  1.0000
  H   H9        1.0  0.22730  0.95770  0.58090  1.0000
  C   C18       1.0  0.22080  0.09410  0.50770  1.0000
  C   C19       1.0  0.26360  0.17930  0.48780  1.0000
  H   H10       1.0  0.23840  0.23300  0.44680  1.0000
  C   C20       1.0  0.54370  0.71680  0.57230  1.0000
  C   C21       1.0  0.52100  0.79940  0.64490  1.0000
  H   H11       1.0  0.54490  0.86210  0.65100  1.0000
  C   C22       1.0  0.45870  0.76800  0.70190  1.0000
  H   H12       1.0  0.43080  0.80540  0.75420  1.0000
  P   P1        1.0  0.08590  0.71430  0.75980  1.0000
  O   O1        1.0  0.04540  0.74820  0.86880  1.0000
  O   O2        1.0  0.06360  0.61060  0.71790  1.0000
  O   O3        1.0  0.07680  0.79110  0.65920  1.0000
  P   P2        1.0  0.11780  0.06550  0.45840  1.0000
  O   O4        1.0  0.07050  0.15650  0.48760  1.0000
  O   O5        1.0  0.11540  0.05000  0.32050  1.0000
  H   H13       1.0  0.12050  0.99050  0.30610  1.0000
  O   O6        1.0  0.09960  0.97340  0.52160  1.0000
  N   N3        1.0  0.50570  0.36470  0.41480  1.0000
  N   N4        1.0  0.59510  0.54860  0.40670  1.0000
  C   C23       1.0  0.55690  0.33340  0.33240  1.0000
  C   C24       1.0  0.61880  0.39090  0.29300  1.0000
  C   C25       1.0  0.67460  0.34540  0.21280  1.0000
  C   C26       1.0  0.75510  0.33270  0.25970  1.0000
  H   H14       1.0  0.77230  0.35380  0.33780  1.0000
  C   C27       1.0  0.80840  0.28900  0.18990  1.0000
  C   C28       1.0  0.78290  0.25640  0.07260  1.0000
  H   H15       1.0  0.81970  0.22980  0.02430  1.0000
  C   C29       1.0  0.70270  0.26400  0.02910  1.0000
  H   H16       1.0  0.68520  0.24060  0.95210  1.0000
  C   C30       1.0  0.64760  0.30700  0.10090  1.0000
  H   H17       1.0  0.59320  0.30950  0.07310  1.0000
  C   C31       1.0  0.63820  0.49300  0.32790  1.0000
  C   C32       1.0  0.70450  0.55320  0.29270  1.0000
  H   H18       1.0  0.74220  0.53310  0.24190  1.0000
  C   C33       1.0  0.70180  0.64090  0.34520  1.0000
  H   H19       1.0  0.73690  0.69370  0.33770  1.0000
  C   C34       1.0  0.63500  0.64030  0.41610  1.0000
  C   C35       1.0  0.61190  0.71940  0.48290  1.0000
  C   C36       1.0  0.65470  0.81580  0.47010  1.0000
  C   C37       1.0  0.61740  0.89550  0.40950  1.0000
  H   H20       1.0  0.56260  0.89310  0.38470  1.0000
  C   C38       1.0  0.66220  0.98060  0.38510  1.0000
  H   H21       1.0  0.63840  0.03280  0.33950  1.0000
  C   C39       1.0  0.74310  0.98510  0.43070  1.0000
  H   H22       1.0  0.77270  0.04230  0.41910  1.0000
  C   C40       1.0  0.77920  0.90590  0.49230  1.0000
  C   C41       1.0  0.73640  0.82070  0.51220  1.0000
  H   H23       1.0  0.76160  0.76700  0.55320  1.0000
  C   C42       1.0  0.45630  0.28320  0.42770  1.0000
  C   C43       1.0  0.47900  0.20060  0.35510  1.0000
  H   H24       1.0  0.45510  0.13790  0.34900  1.0000
  C   C44       1.0  0.54130  0.23200  0.29810  1.0000
  H   H25       1.0  0.56920  0.19460  0.24580  1.0000
  P   P3        1.0  0.91410  0.28570  0.24020  1.0000
  O   O7        1.0  0.95460  0.25180  0.13120  1.0000
  O   O8        1.0  0.93640  0.38940  0.28210  1.0000
  O   O9        1.0  0.92320  0.20890  0.34080  1.0000
  P   P4        1.0  0.88220  0.93450  0.54160  1.0000
  O   O10       1.0  0.92950  0.84350  0.51240  1.0000
  O   O11       1.0  0.88460  0.95000  0.67950  1.0000
  H   H26       1.0  0.87950  0.00950  0.69390  1.0000
  O   O12       1.0  0.90040  0.02660  0.47840  1.0000
  N   N5        1.0  0.50570  0.13530  0.91480  1.0000
  N   N6        1.0  0.59510  0.95140  0.90670  1.0000
  C   C45       1.0  0.55690  0.16660  0.83240  1.0000
  C   C46       1.0  0.61880  0.10910  0.79300  1.0000
  C   C47       1.0  0.67460  0.15460  0.71280  1.0000
  C   C48       1.0  0.75510  0.16730  0.75970  1.0000
  H   H27       1.0  0.77230  0.14620  0.83780  1.0000
  C   C49       1.0  0.80840  0.21100  0.68990  1.0000
  C   C50       1.0  0.78290  0.24360  0.57260  1.0000
  H   H28       1.0  0.81970  0.27020  0.52430  1.0000
  C   C51       1.0  0.70270  0.23600  0.52910  1.0000
  H   H29       1.0  0.68520  0.25940  0.45210  1.0000
  C   C52       1.0  0.64760  0.19300  0.60090  1.0000
  H   H30       1.0  0.59320  0.19050  0.57310  1.0000
  C   C53       1.0  0.63820  0.00700  0.82790  1.0000
  C   C54       1.0  0.70450  0.94680  0.79270  1.0000
  H   H31       1.0  0.74220  0.96690  0.74190  1.0000
  C   C55       1.0  0.70180  0.85910  0.84520  1.0000
  H   H32       1.0  0.73690  0.80630  0.83770  1.0000
  C   C56       1.0  0.63500  0.85970  0.91610  1.0000
  C   C57       1.0  0.61190  0.78060  0.98290  1.0000
  C   C58       1.0  0.65470  0.68420  0.97010  1.0000
  C   C59       1.0  0.61740  0.60450  0.90950  1.0000
  H   H33       1.0  0.56260  0.60690  0.88470  1.0000
  C   C60       1.0  0.66220  0.51940  0.88510  1.0000
  H   H34       1.0  0.63840  0.46720  0.83950  1.0000
  C   C61       1.0  0.74310  0.51490  0.93070  1.0000
  H   H35       1.0  0.77270  0.45770  0.91910  1.0000
  C   C62       1.0  0.77920  0.59410  0.99230  1.0000
  C   C63       1.0  0.73640  0.67930  0.01220  1.0000
  H   H36       1.0  0.76160  0.73300  0.05320  1.0000
  C   C64       1.0  0.45630  0.21680  0.92770  1.0000
  C   C65       1.0  0.47900  0.29940  0.85510  1.0000
  H   H37       1.0  0.45510  0.36210  0.84900  1.0000
  C   C66       1.0  0.54130  0.26800  0.79810  1.0000
  H   H38       1.0  0.56920  0.30540  0.74580  1.0000
  P   P5        1.0  0.91410  0.21430  0.74020  1.0000
  O   O13       1.0  0.95460  0.24820  0.63120  1.0000
  O   O14       1.0  0.93640  0.11060  0.78210  1.0000
  O   O15       1.0  0.92320  0.29110  0.84080  1.0000
  P   P6        1.0  0.88220  0.56550  0.04160  1.0000
  O   O16       1.0  0.92950  0.65650  0.01240  1.0000
  O   O17       1.0  0.88460  0.55000  0.17950  1.0000
  H   H39       1.0  0.87950  0.49050  0.19390  1.0000
  O   O18       1.0  0.90040  0.47340  0.97840  1.0000
  N   N7        1.0  0.49430  0.86470  0.08520  1.0000
  N   N8        1.0  0.40490  0.04860  0.09330  1.0000
  C   C67       1.0  0.44310  0.83340  0.16760  1.0000
  C   C68       1.0  0.38120  0.89090  0.20700  1.0000
  C   C69       1.0  0.32540  0.84540  0.28720  1.0000
  C   C70       1.0  0.24490  0.83270  0.24030  1.0000
  H   H40       1.0  0.22770  0.85380  0.16220  1.0000
  C   C71       1.0  0.19160  0.78900  0.31010  1.0000
  C   C72       1.0  0.21710  0.75640  0.42740  1.0000
  H   H41       1.0  0.18030  0.72980  0.47570  1.0000
  C   C73       1.0  0.29730  0.76400  0.47090  1.0000
  H   H42       1.0  0.31480  0.74060  0.54790  1.0000
  C   C74       1.0  0.35240  0.80700  0.39910  1.0000
  H   H43       1.0  0.40680  0.80950  0.42690  1.0000
  C   C75       1.0  0.36180  0.99300  0.17210  1.0000
  C   C76       1.0  0.29550  0.05320  0.20730  1.0000
  H   H44       1.0  0.25780  0.03310  0.25810  1.0000
  C   C77       1.0  0.29820  0.14090  0.15480  1.0000
  H   H45       1.0  0.26310  0.19370  0.16230  1.0000
  C   C78       1.0  0.36500  0.14030  0.08390  1.0000
  C   C79       1.0  0.38810  0.21940  0.01710  1.0000
  C   C80       1.0  0.34530  0.31580  0.02990  1.0000
  C   C81       1.0  0.38260  0.39550  0.09050  1.0000
  H   H46       1.0  0.43740  0.39310  0.11530  1.0000
  C   C82       1.0  0.33780  0.48060  0.11490  1.0000
  H   H47       1.0  0.36160  0.53280  0.16050  1.0000
  C   C83       1.0  0.25690  0.48510  0.06930  1.0000
  H   H48       1.0  0.22730  0.54230  0.08090  1.0000
  C   C84       1.0  0.22080  0.40590  0.00770  1.0000
  C   C85       1.0  0.26360  0.32070  0.98780  1.0000
  H   H49       1.0  0.23840  0.26700  0.94680  1.0000
  C   C86       1.0  0.54370  0.78320  0.07230  1.0000
  C   C87       1.0  0.52100  0.70060  0.14490  1.0000
  H   H50       1.0  0.54490  0.63790  0.15100  1.0000
  C   C88       1.0  0.45870  0.73200  0.20190  1.0000
  H   H51       1.0  0.43080  0.69460  0.25420  1.0000
  P   P7        1.0  0.08590  0.78570  0.25980  1.0000
  O   O19       1.0  0.04540  0.75180  0.36880  1.0000
  O   O20       1.0  0.06360  0.88940  0.21790  1.0000
  O   O21       1.0  0.07680  0.70890  0.15920  1.0000
  P   P8        1.0  0.11780  0.43450  0.95840  1.0000
  O   O22       1.0  0.07050  0.34350  0.98760  1.0000
  O   O23       1.0  0.11540  0.45000  0.82050  1.0000
  H   H52       1.0  0.12050  0.50950  0.80610  1.0000
  O   O24       1.0  0.09960  0.52660  0.02160  1.0000
  Pd  Pd1       1.0  0.50000  0.00000  0.00000  1.0000
  Zn  Zn1       1.0  0.95790  0.34430  0.99620  1.0000
  Pd  Pd2       1.0  0.50000  0.50000  0.50000  1.0000
  Zn  Zn2       1.0  0.04210  0.84430  0.50380  1.0000
  Zn  Zn3       1.0  0.04210  0.65570  0.00380  1.0000
  Zn  Zn4       1.0  0.95790  0.15570  0.49620  1.0000
