data_image0
_chemical_formula_structural       N2CNC2HCHOHCH3CH3OHN2CNC2HCHOHCH3CH3OHN2CNC2HCHOHCH3CH3OHN2CNC2HCHOHCH3CH3OHN2CNC2HCHOHCH3CH3OHN2CNC2HCHOHCH3CH3OHCNC2HCHOHCH3CH3OHN4CNC2HCHOHCH3CH3OHN2CNC2HCHOHCH3CH3OHN2CNC2HCHOHCH3CH3OHN2CNC2HCHOHCH3CH3OHN2CNC2HCHOHCH3CH3OHCu16
_chemical_formula_sum              "N36 C72 H120 O24 Cu16"
_cell_length_a       19.613
_cell_length_b       19.613
_cell_length_c       13.849
_cell_angle_alpha    90
_cell_angle_beta     90
_cell_angle_gamma    120

_space_group_name_H-M_alt    "P 1"
_space_group_IT_number       1

loop_
  _space_group_symop_operation_xyz
  'x, y, z'

loop_
  _atom_site_type_symbol
  _atom_site_label
  _atom_site_symmetry_multiplicity
  _atom_site_fract_x
  _atom_site_fract_y
  _atom_site_fract_z
  _atom_site_occupancy
  N   N1        1.0  0.59190  0.22020  0.60020  1.0000
  N   N2        1.0  0.52580  0.19200  0.66070  1.0000
  C   C1        1.0  0.57970  0.16290  0.54420  1.0000
  N   N3        1.0  0.50740  0.09460  0.56450  1.0000
  C   C2        1.0  0.47940  0.11840  0.63710  1.0000
  C   C3        1.0  0.40100  0.06020  0.67240  1.0000
  H   H1        1.0  0.37377  0.02382  0.61903  1.0000
  C   C4        1.0  0.63410  0.16790  0.47420  1.0000
  H   H2        1.0  0.67659  0.22206  0.48502  1.0000
  O   O1        1.0  0.39730  0.01390  0.75320  1.0000
  H   H3        1.0  0.43017  0.00005  0.74711  1.0000
  C   C5        1.0  0.35430  0.10070  0.69600  1.0000
  H   H4        1.0  0.30304  0.06246  0.71938  1.0000
  H   H5        1.0  0.38135  0.13977  0.74527  1.0000
  H   H6        1.0  0.34896  0.12556  0.63931  1.0000
  C   C6        1.0  0.61480  0.17350  0.36930  1.0000
  H   H7        1.0  0.65600  0.17660  0.32874  1.0000
  H   H8        1.0  0.56587  0.12767  0.35245  1.0000
  H   H9        1.0  0.61053  0.21972  0.36040  1.0000
  O   O2        1.0  0.67740  0.12770  0.47780  1.0000
  H   H10       1.0  0.65204  0.08467  0.45158  1.0000
  N   N4        1.0  0.77980  0.37170  0.60020  1.0000
  N   N5        1.0  0.80800  0.33380  0.66070  1.0000
  C   C7        1.0  0.83710  0.41680  0.54420  1.0000
  N   N6        1.0  0.90540  0.41280  0.56450  1.0000
  C   C8        1.0  0.88160  0.36100  0.63710  1.0000
  C   C9        1.0  0.93980  0.34080  0.67240  1.0000
  H   H11       1.0  0.97618  0.34995  0.61903  1.0000
  C   C10       1.0  0.83210  0.46620  0.47420  1.0000
  H   H12       1.0  0.77794  0.45453  0.48502  1.0000
  O   O3        1.0  0.98610  0.38340  0.75320  1.0000
  H   H13       1.0  0.99995  0.43011  0.74711  1.0000
  C   C11       1.0  0.89930  0.25360  0.69600  1.0000
  H   H14       1.0  0.93754  0.24058  0.71938  1.0000
  H   H15       1.0  0.86023  0.24158  0.74527  1.0000
  H   H16       1.0  0.87444  0.22340  0.63931  1.0000
  C   C12       1.0  0.82650  0.44130  0.36930  1.0000
  H   H17       1.0  0.82340  0.47941  0.32874  1.0000
  H   H18       1.0  0.87233  0.43820  0.35245  1.0000
  H   H19       1.0  0.78028  0.39081  0.36040  1.0000
  O   O4        1.0  0.87230  0.54970  0.47780  1.0000
  H   H20       1.0  0.91533  0.56737  0.45158  1.0000
  N   N7        1.0  0.62830  0.40810  0.60020  1.0000
  N   N8        1.0  0.66620  0.47420  0.66070  1.0000
  C   C13       1.0  0.58320  0.42030  0.54420  1.0000
  N   N9        1.0  0.58720  0.49260  0.56450  1.0000
  C   C14       1.0  0.63900  0.52060  0.63710  1.0000
  C   C15       1.0  0.65920  0.59900  0.67240  1.0000
  H   H21       1.0  0.65005  0.62623  0.61903  1.0000
  C   C16       1.0  0.53380  0.36590  0.47420  1.0000
  H   H22       1.0  0.54547  0.32341  0.48502  1.0000
  O   O5        1.0  0.61660  0.60270  0.75320  1.0000
  H   H23       1.0  0.56989  0.56983  0.74711  1.0000
  C   C17       1.0  0.74640  0.64570  0.69600  1.0000
  H   H24       1.0  0.75942  0.69696  0.71938  1.0000
  H   H25       1.0  0.75842  0.61865  0.74527  1.0000
  H   H26       1.0  0.77660  0.65104  0.63931  1.0000
  C   C18       1.0  0.55870  0.38520  0.36930  1.0000
  H   H27       1.0  0.52059  0.34400  0.32874  1.0000
  H   H28       1.0  0.56180  0.43413  0.35245  1.0000
  H   H29       1.0  0.60919  0.38947  0.36040  1.0000
  O   O6        1.0  0.45030  0.32260  0.47780  1.0000
  H   H30       1.0  0.43263  0.34796  0.45158  1.0000
  N   N10       1.0  0.40810  0.77980  0.10020  1.0000
  N   N11       1.0  0.47420  0.80800  0.16070  1.0000
  C   C19       1.0  0.42030  0.83710  0.04420  1.0000
  N   N12       1.0  0.49260  0.90540  0.06450  1.0000
  C   C20       1.0  0.52060  0.88160  0.13710  1.0000
  C   C21       1.0  0.59900  0.93980  0.17240  1.0000
  H   H31       1.0  0.62623  0.97618  0.11903  1.0000
  C   C22       1.0  0.36590  0.83210  0.97420  1.0000
  H   H32       1.0  0.32341  0.77794  0.98502  1.0000
  O   O7        1.0  0.60270  0.98610  0.25320  1.0000
  H   H33       1.0  0.56983  0.99995  0.24711  1.0000
  C   C23       1.0  0.64570  0.89930  0.19600  1.0000
  H   H34       1.0  0.69696  0.93754  0.21938  1.0000
  H   H35       1.0  0.61865  0.86023  0.24527  1.0000
  H   H36       1.0  0.65104  0.87444  0.13931  1.0000
  C   C24       1.0  0.38520  0.82650  0.86930  1.0000
  H   H37       1.0  0.34400  0.82340  0.82874  1.0000
  H   H38       1.0  0.43413  0.87233  0.85245  1.0000
  H   H39       1.0  0.38947  0.78028  0.86040  1.0000
  O   O8        1.0  0.32260  0.87230  0.97780  1.0000
  H   H40       1.0  0.34796  0.91533  0.95158  1.0000
  N   N13       1.0  0.22020  0.62830  0.10020  1.0000
  N   N14       1.0  0.19200  0.66620  0.16070  1.0000
  C   C25       1.0  0.16290  0.58320  0.04420  1.0000
  N   N15       1.0  0.09460  0.58720  0.06450  1.0000
  C   C26       1.0  0.11840  0.63900  0.13710  1.0000
  C   C27       1.0  0.06020  0.65920  0.17240  1.0000
  H   H41       1.0  0.02382  0.65005  0.11903  1.0000
  C   C28       1.0  0.16790  0.53380  0.97420  1.0000
  H   H42       1.0  0.22206  0.54547  0.98502  1.0000
  O   O9        1.0  0.01390  0.61660  0.25320  1.0000
  H   H43       1.0  0.00005  0.56989  0.24711  1.0000
  C   C29       1.0  0.10070  0.74640  0.19600  1.0000
  H   H44       1.0  0.06246  0.75942  0.21938  1.0000
  H   H45       1.0  0.13977  0.75842  0.24527  1.0000
  H   H46       1.0  0.12556  0.77660  0.13931  1.0000
  C   C30       1.0  0.17350  0.55870  0.86930  1.0000
  H   H47       1.0  0.17660  0.52059  0.82874  1.0000
  H   H48       1.0  0.12767  0.56180  0.85245  1.0000
  H   H49       1.0  0.21972  0.60919  0.86040  1.0000
  O   O10       1.0  0.12770  0.45030  0.97780  1.0000
  H   H50       1.0  0.08467  0.43263  0.95158  1.0000
  N   N16       1.0  0.37170  0.59190  0.10020  1.0000
  N   N17       1.0  0.33380  0.52580  0.16070  1.0000
  C   C31       1.0  0.41680  0.57970  0.04420  1.0000
  N   N18       1.0  0.41280  0.50740  0.06450  1.0000
  C   C32       1.0  0.36100  0.47940  0.13710  1.0000
  C   C33       1.0  0.34080  0.40100  0.17240  1.0000
  H   H51       1.0  0.34995  0.37377  0.11903  1.0000
  C   C34       1.0  0.46620  0.63410  0.97420  1.0000
  H   H52       1.0  0.45453  0.67659  0.98502  1.0000
  O   O11       1.0  0.38340  0.39730  0.25320  1.0000
  H   H53       1.0  0.43011  0.43017  0.24711  1.0000
  C   C35       1.0  0.25360  0.35430  0.19600  1.0000
  H   H54       1.0  0.24058  0.30304  0.21938  1.0000
  H   H55       1.0  0.24158  0.38135  0.24527  1.0000
  H   H56       1.0  0.22340  0.34896  0.13931  1.0000
  C   C36       1.0  0.44130  0.61480  0.86930  1.0000
  H   H57       1.0  0.47941  0.65600  0.82874  1.0000
  H   H58       1.0  0.43820  0.56587  0.85245  1.0000
  H   H59       1.0  0.39081  0.61053  0.86040  1.0000
  O   O12       1.0  0.54970  0.67740  0.97780  1.0000
  H   H60       1.0  0.56737  0.65204  0.95158  1.0000
  C   C37       1.0  0.16290  0.57970  0.45580  1.0000
  N   N19       1.0  0.09460  0.50740  0.43550  1.0000
  C   C38       1.0  0.11840  0.47940  0.36290  1.0000
  C   C39       1.0  0.06020  0.40100  0.32760  1.0000
  H   H61       1.0  0.02382  0.37377  0.38097  1.0000
  C   C40       1.0  0.16790  0.63410  0.52580  1.0000
  H   H62       1.0  0.22206  0.67659  0.51498  1.0000
  O   O13       1.0  0.01390  0.39730  0.24680  1.0000
  H   H63       1.0  0.00005  0.43017  0.25289  1.0000
  C   C41       1.0  0.10070  0.35430  0.30400  1.0000
  H   H64       1.0  0.06246  0.30304  0.28062  1.0000
  H   H65       1.0  0.13977  0.38135  0.25473  1.0000
  H   H66       1.0  0.12556  0.34896  0.36069  1.0000
  C   C42       1.0  0.17350  0.61480  0.63070  1.0000
  H   H67       1.0  0.17660  0.65600  0.67126  1.0000
  H   H68       1.0  0.12767  0.56587  0.64755  1.0000
  H   H69       1.0  0.21972  0.61053  0.63960  1.0000
  O   O14       1.0  0.12770  0.67740  0.52220  1.0000
  H   H70       1.0  0.08467  0.65204  0.54842  1.0000
  N   N20       1.0  0.22020  0.59190  0.39980  1.0000
  N   N21       1.0  0.19200  0.52580  0.33930  1.0000
  N   N22       1.0  0.37170  0.77980  0.39980  1.0000
  N   N23       1.0  0.33380  0.80800  0.33930  1.0000
  C   C43       1.0  0.41680  0.83710  0.45580  1.0000
  N   N24       1.0  0.41280  0.90540  0.43550  1.0000
  C   C44       1.0  0.36100  0.88160  0.36290  1.0000
  C   C45       1.0  0.34080  0.93980  0.32760  1.0000
  H   H71       1.0  0.34995  0.97618  0.38097  1.0000
  C   C46       1.0  0.46620  0.83210  0.52580  1.0000
  H   H72       1.0  0.45453  0.77794  0.51498  1.0000
  O   O15       1.0  0.38340  0.98610  0.24680  1.0000
  H   H73       1.0  0.43011  0.99995  0.25289  1.0000
  C   C47       1.0  0.25360  0.89930  0.30400  1.0000
  H   H74       1.0  0.24058  0.93754  0.28062  1.0000
  H   H75       1.0  0.24158  0.86023  0.25473  1.0000
  H   H76       1.0  0.22340  0.87444  0.36069  1.0000
  C   C48       1.0  0.44130  0.82650  0.63070  1.0000
  H   H77       1.0  0.47941  0.82340  0.67126  1.0000
  H   H78       1.0  0.43820  0.87233  0.64755  1.0000
  H   H79       1.0  0.39081  0.78028  0.63960  1.0000
  O   O16       1.0  0.54970  0.87230  0.52220  1.0000
  H   H80       1.0  0.56737  0.91533  0.54842  1.0000
  N   N25       1.0  0.40810  0.62830  0.39980  1.0000
  N   N26       1.0  0.47420  0.66620  0.33930  1.0000
  C   C49       1.0  0.42030  0.58320  0.45580  1.0000
  N   N27       1.0  0.49260  0.58720  0.43550  1.0000
  C   C50       1.0  0.52060  0.63900  0.36290  1.0000
  C   C51       1.0  0.59900  0.65920  0.32760  1.0000
  H   H81       1.0  0.62623  0.65005  0.38097  1.0000
  C   C52       1.0  0.36590  0.53380  0.52580  1.0000
  H   H82       1.0  0.32341  0.54547  0.51498  1.0000
  O   O17       1.0  0.60270  0.61660  0.24680  1.0000
  H   H83       1.0  0.56983  0.56989  0.25289  1.0000
  C   C53       1.0  0.64570  0.74640  0.30400  1.0000
  H   H84       1.0  0.69696  0.75942  0.28062  1.0000
  H   H85       1.0  0.61865  0.75842  0.25473  1.0000
  H   H86       1.0  0.65104  0.77660  0.36069  1.0000
  C   C54       1.0  0.38520  0.55870  0.63070  1.0000
  H   H87       1.0  0.34400  0.52059  0.67126  1.0000
  H   H88       1.0  0.43413  0.56180  0.64755  1.0000
  H   H89       1.0  0.38947  0.60919  0.63960  1.0000
  O   O18       1.0  0.32260  0.45030  0.52220  1.0000
  H   H90       1.0  0.34796  0.43263  0.54842  1.0000
  N   N28       1.0  0.77980  0.40810  0.89980  1.0000
  N   N29       1.0  0.80800  0.47420  0.83930  1.0000
  C   C55       1.0  0.83710  0.42030  0.95580  1.0000
  N   N30       1.0  0.90540  0.49260  0.93550  1.0000
  C   C56       1.0  0.88160  0.52060  0.86290  1.0000
  C   C57       1.0  0.93980  0.59900  0.82760  1.0000
  H   H91       1.0  0.97618  0.62623  0.88097  1.0000
  C   C58       1.0  0.83210  0.36590  0.02580  1.0000
  H   H92       1.0  0.77794  0.32341  0.01498  1.0000
  O   O19       1.0  0.98610  0.60270  0.74680  1.0000
  H   H93       1.0  0.99995  0.56983  0.75289  1.0000
  C   C59       1.0  0.89930  0.64570  0.80400  1.0000
  H   H94       1.0  0.93754  0.69696  0.78062  1.0000
  H   H95       1.0  0.86023  0.61865  0.75473  1.0000
  H   H96       1.0  0.87444  0.65104  0.86069  1.0000
  C   C60       1.0  0.82650  0.38520  0.13070  1.0000
  H   H97       1.0  0.82340  0.34400  0.17126  1.0000
  H   H98       1.0  0.87233  0.43413  0.14755  1.0000
  H   H99       1.0  0.78028  0.38947  0.13960  1.0000
  O   O20       1.0  0.87230  0.32260  0.02220  1.0000
  H   H100      1.0  0.91533  0.34796  0.04842  1.0000
  N   N31       1.0  0.62830  0.22020  0.89980  1.0000
  N   N32       1.0  0.66620  0.19200  0.83930  1.0000
  C   C61       1.0  0.58320  0.16290  0.95580  1.0000
  N   N33       1.0  0.58720  0.09460  0.93550  1.0000
  C   C62       1.0  0.63900  0.11840  0.86290  1.0000
  C   C63       1.0  0.65920  0.06020  0.82760  1.0000
  H   H101      1.0  0.65005  0.02382  0.88097  1.0000
  C   C64       1.0  0.53380  0.16790  0.02580  1.0000
  H   H102      1.0  0.54547  0.22206  0.01498  1.0000
  O   O21       1.0  0.61660  0.01390  0.74680  1.0000
  H   H103      1.0  0.56989  0.00005  0.75289  1.0000
  C   C65       1.0  0.74640  0.10070  0.80400  1.0000
  H   H104      1.0  0.75942  0.06246  0.78062  1.0000
  H   H105      1.0  0.75842  0.13977  0.75473  1.0000
  H   H106      1.0  0.77660  0.12556  0.86069  1.0000
  C   C66       1.0  0.55870  0.17350  0.13070  1.0000
  H   H107      1.0  0.52059  0.17660  0.17126  1.0000
  H   H108      1.0  0.56180  0.12767  0.14755  1.0000
  H   H109      1.0  0.60919  0.21972  0.13960  1.0000
  O   O22       1.0  0.45030  0.12770  0.02220  1.0000
  H   H110      1.0  0.43263  0.08467  0.04842  1.0000
  N   N34       1.0  0.59190  0.37170  0.89980  1.0000
  N   N35       1.0  0.52580  0.33380  0.83930  1.0000
  C   C67       1.0  0.57970  0.41680  0.95580  1.0000
  N   N36       1.0  0.50740  0.41280  0.93550  1.0000
  C   C68       1.0  0.47940  0.36100  0.86290  1.0000
  C   C69       1.0  0.40100  0.34080  0.82760  1.0000
  H   H111      1.0  0.37377  0.34995  0.88097  1.0000
  C   C70       1.0  0.63410  0.46620  0.02580  1.0000
  H   H112      1.0  0.67659  0.45453  0.01498  1.0000
  O   O23       1.0  0.39730  0.38340  0.74680  1.0000
  H   H113      1.0  0.43017  0.43011  0.75289  1.0000
  C   C71       1.0  0.35430  0.25360  0.80400  1.0000
  H   H114      1.0  0.30304  0.24058  0.78062  1.0000
  H   H115      1.0  0.38135  0.24158  0.75473  1.0000
  H   H116      1.0  0.34896  0.22340  0.86069  1.0000
  C   C72       1.0  0.61480  0.44130  0.13070  1.0000
  H   H117      1.0  0.65600  0.47941  0.17126  1.0000
  H   H118      1.0  0.56587  0.43820  0.14755  1.0000
  H   H119      1.0  0.61053  0.39081  0.13960  1.0000
  O   O24       1.0  0.67740  0.54970  0.02220  1.0000
  H   H120      1.0  0.65204  0.56737  0.04842  1.0000
  Cu  Cu1       1.0  0.52268  0.26134  0.75000  1.0000
  Cu  Cu2       1.0  0.73866  0.26134  0.75000  1.0000
  Cu  Cu3       1.0  0.73866  0.47732  0.75000  1.0000
  Cu  Cu4       1.0  0.47732  0.73866  0.25000  1.0000
  Cu  Cu5       1.0  0.26134  0.73866  0.25000  1.0000
  Cu  Cu6       1.0  0.26134  0.52268  0.25000  1.0000
  Cu  Cu7       1.0  0.46153  0.00000  0.50000  1.0000
  Cu  Cu8       1.0  0.00000  0.46153  0.50000  1.0000
  Cu  Cu9       1.0  0.53847  0.53847  0.50000  1.0000
  Cu  Cu10      1.0  0.53847  0.00000  0.00000  1.0000
  Cu  Cu11      1.0  0.00000  0.53847  0.00000  1.0000
  Cu  Cu12      1.0  0.46153  0.46153  0.00000  1.0000
  Cu  Cu13      1.0  0.66667  0.33333  0.60127  1.0000
  Cu  Cu14      1.0  0.33333  0.66667  0.10127  1.0000
  Cu  Cu15      1.0  0.33333  0.66667  0.39873  1.0000
  Cu  Cu16      1.0  0.66667  0.33333  0.89873  1.0000
