data_image0
_chemical_formula_structural       N3C3HCHCH3CH3CH3CH3N3C3HCHCH3CH3CH3CH3N3C3HCHCH3CH3CH3CH3N3C3HCHCH3CH3CH3CH3N3C3HCHCH3CH3CH3CH3C3HCHCH3CH3CH3CH3N6C3HCHCH3CH3CH3CH3N3C3HCHCH3CH3CH3CH3N3C3HCHCH3CH3CH3CH3N3C3HCHCH3CH3CH3CH4CHCH3CH3CH3CH3N3C3N3C3HCHCH3CH3CH3CH3Cu16
_chemical_formula_sum              "N36 C96 H168 Cu16"
_cell_length_a       19.603
_cell_length_b       19.603
_cell_length_c       13.939
_cell_angle_alpha    90
_cell_angle_beta     90
_cell_angle_gamma    120

_space_group_name_H-M_alt    "P 1"
_space_group_IT_number       1

loop_
  _space_group_symop_operation_xyz
  'x, y, z'

loop_
  _atom_site_type_symbol
  _atom_site_label
  _atom_site_symmetry_multiplicity
  _atom_site_fract_x
  _atom_site_fract_y
  _atom_site_fract_z
  _atom_site_occupancy
  N   N1        1.0  0.80750  0.33280  0.66110  1.0000
  N   N2        1.0  0.77960  0.37030  0.60100  1.0000
  N   N3        1.0  0.90330  0.40900  0.56410  1.0000
  C   C1        1.0  0.83770  0.41570  0.54430  1.0000
  C   C2        1.0  0.88160  0.35670  0.63660  1.0000
  C   C3        1.0  0.92950  0.33390  0.68850  1.0000
  H   H1        1.0  0.89463  0.29552  0.73612  1.0000
  C   C4        1.0  0.82320  0.46490  0.47300  1.0000
  H   H2        1.0  0.76966  0.45581  0.48189  1.0000
  C   C5        1.0  0.83180  0.44280  0.37110  1.0000
  H   H3        1.0  0.79688  0.38742  0.36166  1.0000
  H   H4        1.0  0.81879  0.47197  0.32668  1.0000
  H   H5        1.0  0.88514  0.45505  0.36069  1.0000
  C   C6        1.0  0.00160  0.39340  0.74400  1.0000
  H   H6        1.0  0.02615  0.36713  0.77404  1.0000
  H   H7        1.0  0.03823  0.43292  0.70075  1.0000
  H   H8        1.0  0.98598  0.41789  0.79215  1.0000
  C   C7        1.0  0.88120  0.55280  0.47680  1.0000
  H   H9        1.0  0.87998  0.57256  0.53944  1.0000
  H   H10       1.0  0.93329  0.56231  0.46367  1.0000
  H   H11       1.0  0.86694  0.57922  0.42965  1.0000
  C   C8        1.0  0.96090  0.29090  0.62830  1.0000
  H   H12       1.0  0.99252  0.27745  0.66779  1.0000
  H   H13       1.0  0.91753  0.24380  0.60237  1.0000
  H   H14       1.0  0.99235  0.32443  0.57687  1.0000
  N   N4        1.0  0.66720  0.47470  0.66110  1.0000
  N   N5        1.0  0.62970  0.40930  0.60100  1.0000
  N   N6        1.0  0.59100  0.49430  0.56410  1.0000
  C   C9        1.0  0.58430  0.42200  0.54430  1.0000
  C   C10       1.0  0.64330  0.52490  0.63660  1.0000
  C   C11       1.0  0.66610  0.59560  0.68850  1.0000
  H   H15       1.0  0.70448  0.59910  0.73612  1.0000
  C   C12       1.0  0.53510  0.35830  0.47300  1.0000
  H   H16       1.0  0.54419  0.31385  0.48189  1.0000
  C   C13       1.0  0.55720  0.38900  0.37110  1.0000
  H   H17       1.0  0.61258  0.40947  0.36166  1.0000
  H   H18       1.0  0.52803  0.34683  0.32668  1.0000
  H   H19       1.0  0.54495  0.43009  0.36069  1.0000
  C   C14       1.0  0.60660  0.60820  0.74400  1.0000
  H   H20       1.0  0.63287  0.65902  0.77404  1.0000
  H   H21       1.0  0.56708  0.60531  0.70075  1.0000
  H   H22       1.0  0.58211  0.56809  0.79215  1.0000
  C   C15       1.0  0.44720  0.32840  0.47680  1.0000
  H   H23       1.0  0.42744  0.30743  0.53944  1.0000
  H   H24       1.0  0.43769  0.37098  0.46367  1.0000
  H   H25       1.0  0.42078  0.28772  0.42965  1.0000
  C   C16       1.0  0.70910  0.67000  0.62830  1.0000
  H   H26       1.0  0.72255  0.71507  0.66779  1.0000
  H   H27       1.0  0.75620  0.67373  0.60237  1.0000
  H   H28       1.0  0.67557  0.66792  0.57687  1.0000
  N   N7        1.0  0.52530  0.19250  0.66110  1.0000
  N   N8        1.0  0.59070  0.22040  0.60100  1.0000
  N   N9        1.0  0.50570  0.09670  0.56410  1.0000
  C   C17       1.0  0.57800  0.16230  0.54430  1.0000
  C   C18       1.0  0.47510  0.11840  0.63660  1.0000
  C   C19       1.0  0.40440  0.07050  0.68850  1.0000
  H   H29       1.0  0.40090  0.10537  0.73612  1.0000
  C   C20       1.0  0.64170  0.17680  0.47300  1.0000
  H   H30       1.0  0.68615  0.23034  0.48189  1.0000
  C   C21       1.0  0.61100  0.16820  0.37110  1.0000
  H   H31       1.0  0.59053  0.20312  0.36166  1.0000
  H   H32       1.0  0.65317  0.18121  0.32668  1.0000
  H   H33       1.0  0.56991  0.11486  0.36069  1.0000
  C   C22       1.0  0.39180  0.99840  0.74400  1.0000
  H   H34       1.0  0.34098  0.97385  0.77404  1.0000
  H   H35       1.0  0.39469  0.96177  0.70075  1.0000
  H   H36       1.0  0.43191  0.01402  0.79215  1.0000
  C   C23       1.0  0.67160  0.11880  0.47680  1.0000
  H   H37       1.0  0.69257  0.12002  0.53944  1.0000
  H   H38       1.0  0.62902  0.06671  0.46367  1.0000
  H   H39       1.0  0.71228  0.13306  0.42965  1.0000
  C   C24       1.0  0.33000  0.03910  0.62830  1.0000
  H   H40       1.0  0.28493  0.00748  0.66779  1.0000
  H   H41       1.0  0.32627  0.08247  0.60237  1.0000
  H   H42       1.0  0.33208  0.00765  0.57687  1.0000
  N   N10       1.0  0.19250  0.66720  0.16110  1.0000
  N   N11       1.0  0.22040  0.62970  0.10100  1.0000
  N   N12       1.0  0.09670  0.59100  0.06410  1.0000
  C   C25       1.0  0.16230  0.58430  0.04430  1.0000
  C   C26       1.0  0.11840  0.64330  0.13660  1.0000
  C   C27       1.0  0.07050  0.66610  0.18850  1.0000
  H   H43       1.0  0.10537  0.70448  0.23612  1.0000
  C   C28       1.0  0.17680  0.53510  0.97300  1.0000
  H   H44       1.0  0.23034  0.54419  0.98189  1.0000
  C   C29       1.0  0.16820  0.55720  0.87110  1.0000
  H   H45       1.0  0.20312  0.61258  0.86166  1.0000
  H   H46       1.0  0.18121  0.52803  0.82668  1.0000
  H   H47       1.0  0.11486  0.54495  0.86069  1.0000
  C   C30       1.0  0.99840  0.60660  0.24400  1.0000
  H   H48       1.0  0.97385  0.63287  0.27404  1.0000
  H   H49       1.0  0.96177  0.56708  0.20075  1.0000
  H   H50       1.0  0.01402  0.58211  0.29215  1.0000
  C   C31       1.0  0.11880  0.44720  0.97680  1.0000
  H   H51       1.0  0.12002  0.42744  0.03944  1.0000
  H   H52       1.0  0.06671  0.43769  0.96367  1.0000
  H   H53       1.0  0.13306  0.42078  0.92965  1.0000
  C   C32       1.0  0.03910  0.70910  0.12830  1.0000
  H   H54       1.0  0.00748  0.72255  0.16779  1.0000
  H   H55       1.0  0.08247  0.75620  0.10237  1.0000
  H   H56       1.0  0.00765  0.67557  0.07687  1.0000
  N   N13       1.0  0.33280  0.52530  0.16110  1.0000
  N   N14       1.0  0.37030  0.59070  0.10100  1.0000
  N   N15       1.0  0.40900  0.50570  0.06410  1.0000
  C   C33       1.0  0.41570  0.57800  0.04430  1.0000
  C   C34       1.0  0.35670  0.47510  0.13660  1.0000
  C   C35       1.0  0.33390  0.40440  0.18850  1.0000
  H   H57       1.0  0.29552  0.40090  0.23612  1.0000
  C   C36       1.0  0.46490  0.64170  0.97300  1.0000
  H   H58       1.0  0.45581  0.68615  0.98189  1.0000
  C   C37       1.0  0.44280  0.61100  0.87110  1.0000
  H   H59       1.0  0.38742  0.59053  0.86166  1.0000
  H   H60       1.0  0.47197  0.65317  0.82668  1.0000
  H   H61       1.0  0.45505  0.56991  0.86069  1.0000
  C   C38       1.0  0.39340  0.39180  0.24400  1.0000
  H   H62       1.0  0.36713  0.34098  0.27404  1.0000
  H   H63       1.0  0.43292  0.39469  0.20075  1.0000
  H   H64       1.0  0.41789  0.43191  0.29215  1.0000
  C   C39       1.0  0.55280  0.67160  0.97680  1.0000
  H   H65       1.0  0.57256  0.69257  0.03944  1.0000
  H   H66       1.0  0.56231  0.62902  0.96367  1.0000
  H   H67       1.0  0.57922  0.71228  0.92965  1.0000
  C   C40       1.0  0.29090  0.33000  0.12830  1.0000
  H   H68       1.0  0.27745  0.28493  0.16779  1.0000
  H   H69       1.0  0.24380  0.32627  0.10237  1.0000
  H   H70       1.0  0.32443  0.33208  0.07687  1.0000
  C   C41       1.0  0.42200  0.83770  0.04430  1.0000
  C   C42       1.0  0.52490  0.88160  0.13660  1.0000
  C   C43       1.0  0.59560  0.92950  0.18850  1.0000
  H   H71       1.0  0.59910  0.89463  0.23612  1.0000
  C   C44       1.0  0.35830  0.82320  0.97300  1.0000
  H   H72       1.0  0.31385  0.76966  0.98189  1.0000
  C   C45       1.0  0.38900  0.83180  0.87110  1.0000
  H   H73       1.0  0.40947  0.79688  0.86166  1.0000
  H   H74       1.0  0.34683  0.81879  0.82668  1.0000
  H   H75       1.0  0.43009  0.88514  0.86069  1.0000
  C   C46       1.0  0.60820  0.00160  0.24400  1.0000
  H   H76       1.0  0.65902  0.02615  0.27404  1.0000
  H   H77       1.0  0.60531  0.03823  0.20075  1.0000
  H   H78       1.0  0.56809  0.98598  0.29215  1.0000
  C   C47       1.0  0.32840  0.88120  0.97680  1.0000
  H   H79       1.0  0.30743  0.87998  0.03944  1.0000
  H   H80       1.0  0.37098  0.93329  0.96367  1.0000
  H   H81       1.0  0.28772  0.86694  0.92965  1.0000
  C   C48       1.0  0.67000  0.96090  0.12830  1.0000
  H   H82       1.0  0.71507  0.99252  0.16779  1.0000
  H   H83       1.0  0.67373  0.91753  0.10237  1.0000
  H   H84       1.0  0.66792  0.99235  0.07687  1.0000
  N   N16       1.0  0.47470  0.80750  0.16110  1.0000
  N   N17       1.0  0.40930  0.77960  0.10100  1.0000
  N   N18       1.0  0.49430  0.90330  0.06410  1.0000
  N   N19       1.0  0.33280  0.80750  0.33890  1.0000
  N   N20       1.0  0.37030  0.77960  0.39900  1.0000
  N   N21       1.0  0.40900  0.90330  0.43590  1.0000
  C   C49       1.0  0.41570  0.83770  0.45570  1.0000
  C   C50       1.0  0.35670  0.88160  0.36340  1.0000
  C   C51       1.0  0.33390  0.92950  0.31150  1.0000
  H   H85       1.0  0.29552  0.89463  0.26388  1.0000
  C   C52       1.0  0.46490  0.82320  0.52700  1.0000
  H   H86       1.0  0.45581  0.76966  0.51811  1.0000
  C   C53       1.0  0.44280  0.83180  0.62890  1.0000
  H   H87       1.0  0.38742  0.79688  0.63834  1.0000
  H   H88       1.0  0.47197  0.81879  0.67332  1.0000
  H   H89       1.0  0.45505  0.88514  0.63931  1.0000
  C   C54       1.0  0.39340  0.00160  0.25600  1.0000
  H   H90       1.0  0.36713  0.02615  0.22596  1.0000
  H   H91       1.0  0.43292  0.03823  0.29925  1.0000
  H   H92       1.0  0.41789  0.98598  0.20785  1.0000
  C   C55       1.0  0.55280  0.88120  0.52320  1.0000
  H   H93       1.0  0.57256  0.87998  0.46056  1.0000
  H   H94       1.0  0.56231  0.93329  0.53633  1.0000
  H   H95       1.0  0.57922  0.86694  0.57035  1.0000
  C   C56       1.0  0.29090  0.96090  0.37170  1.0000
  H   H96       1.0  0.27745  0.99252  0.33221  1.0000
  H   H97       1.0  0.24380  0.91753  0.39763  1.0000
  H   H98       1.0  0.32443  0.99235  0.42313  1.0000
  N   N22       1.0  0.47470  0.66720  0.33890  1.0000
  N   N23       1.0  0.40930  0.62970  0.39900  1.0000
  N   N24       1.0  0.49430  0.59100  0.43590  1.0000
  C   C57       1.0  0.42200  0.58430  0.45570  1.0000
  C   C58       1.0  0.52490  0.64330  0.36340  1.0000
  C   C59       1.0  0.59560  0.66610  0.31150  1.0000
  H   H99       1.0  0.59910  0.70448  0.26388  1.0000
  C   C60       1.0  0.35830  0.53510  0.52700  1.0000
  H   H100      1.0  0.31385  0.54419  0.51811  1.0000
  C   C61       1.0  0.38900  0.55720  0.62890  1.0000
  H   H101      1.0  0.40947  0.61258  0.63834  1.0000
  H   H102      1.0  0.34683  0.52803  0.67332  1.0000
  H   H103      1.0  0.43009  0.54495  0.63931  1.0000
  C   C62       1.0  0.60820  0.60660  0.25600  1.0000
  H   H104      1.0  0.65902  0.63287  0.22596  1.0000
  H   H105      1.0  0.60531  0.56708  0.29925  1.0000
  H   H106      1.0  0.56809  0.58211  0.20785  1.0000
  C   C63       1.0  0.32840  0.44720  0.52320  1.0000
  H   H107      1.0  0.30743  0.42744  0.46056  1.0000
  H   H108      1.0  0.37098  0.43769  0.53633  1.0000
  H   H109      1.0  0.28772  0.42078  0.57035  1.0000
  C   C64       1.0  0.67000  0.70910  0.37170  1.0000
  H   H110      1.0  0.71507  0.72255  0.33221  1.0000
  H   H111      1.0  0.67373  0.75620  0.39763  1.0000
  H   H112      1.0  0.66792  0.67557  0.42313  1.0000
  N   N25       1.0  0.19250  0.52530  0.33890  1.0000
  N   N26       1.0  0.22040  0.59070  0.39900  1.0000
  N   N27       1.0  0.09670  0.50570  0.43590  1.0000
  C   C65       1.0  0.16230  0.57800  0.45570  1.0000
  C   C66       1.0  0.11840  0.47510  0.36340  1.0000
  C   C67       1.0  0.07050  0.40440  0.31150  1.0000
  H   H113      1.0  0.10537  0.40090  0.26388  1.0000
  C   C68       1.0  0.17680  0.64170  0.52700  1.0000
  H   H114      1.0  0.23034  0.68615  0.51811  1.0000
  C   C69       1.0  0.16820  0.61100  0.62890  1.0000
  H   H115      1.0  0.20312  0.59053  0.63834  1.0000
  H   H116      1.0  0.18121  0.65317  0.67332  1.0000
  H   H117      1.0  0.11486  0.56991  0.63931  1.0000
  C   C70       1.0  0.99840  0.39180  0.25600  1.0000
  H   H118      1.0  0.97385  0.34098  0.22596  1.0000
  H   H119      1.0  0.96177  0.39469  0.29925  1.0000
  H   H120      1.0  0.01402  0.43191  0.20785  1.0000
  C   C71       1.0  0.11880  0.67160  0.52320  1.0000
  H   H121      1.0  0.12002  0.69257  0.46056  1.0000
  H   H122      1.0  0.06671  0.62902  0.53633  1.0000
  H   H123      1.0  0.13306  0.71228  0.57035  1.0000
  C   C72       1.0  0.03910  0.33000  0.37170  1.0000
  H   H124      1.0  0.00748  0.28493  0.33221  1.0000
  H   H125      1.0  0.08247  0.32627  0.39763  1.0000
  H   H126      1.0  0.00765  0.33208  0.42313  1.0000
  N   N28       1.0  0.66720  0.19250  0.83890  1.0000
  N   N29       1.0  0.62970  0.22040  0.89900  1.0000
  N   N30       1.0  0.59100  0.09670  0.93590  1.0000
  C   C73       1.0  0.58430  0.16230  0.95570  1.0000
  C   C74       1.0  0.64330  0.11840  0.86340  1.0000
  C   C75       1.0  0.66610  0.07050  0.81150  1.0000
  H   H127      1.0  0.70448  0.10537  0.76388  1.0000
  C   C76       1.0  0.53510  0.17680  0.02700  1.0000
  H   H128      1.0  0.54419  0.23034  0.01811  1.0000
  C   C77       1.0  0.55720  0.16820  0.12890  1.0000
  H   H129      1.0  0.61258  0.20312  0.13834  1.0000
  H   H130      1.0  0.52803  0.18121  0.17332  1.0000
  H   H131      1.0  0.54495  0.11486  0.13931  1.0000
  C   C78       1.0  0.60660  0.99840  0.75600  1.0000
  H   H132      1.0  0.63287  0.97385  0.72596  1.0000
  H   H133      1.0  0.56708  0.96177  0.79925  1.0000
  H   H134      1.0  0.58211  0.01402  0.70785  1.0000
  C   C79       1.0  0.44720  0.11880  0.02320  1.0000
  H   H135      1.0  0.42744  0.12002  0.96056  1.0000
  H   H136      1.0  0.43769  0.06671  0.03633  1.0000
  H   H137      1.0  0.42078  0.13306  0.07035  1.0000
  C   C80       1.0  0.70910  0.03910  0.87170  1.0000
  H   H138      1.0  0.72255  0.00748  0.83221  1.0000
  H   H139      1.0  0.75620  0.08247  0.89763  1.0000
  H   H140      1.0  0.67557  0.00765  0.92313  1.0000
  H   H141      1.0  0.40090  0.29552  0.76388  1.0000
  C   C81       1.0  0.64170  0.46490  0.02700  1.0000
  H   H142      1.0  0.68615  0.45581  0.01811  1.0000
  C   C82       1.0  0.61100  0.44280  0.12890  1.0000
  H   H143      1.0  0.59053  0.38742  0.13834  1.0000
  H   H144      1.0  0.65317  0.47197  0.17332  1.0000
  H   H145      1.0  0.56991  0.45505  0.13931  1.0000
  C   C83       1.0  0.39180  0.39340  0.75600  1.0000
  H   H146      1.0  0.34098  0.36713  0.72596  1.0000
  H   H147      1.0  0.39469  0.43292  0.79925  1.0000
  H   H148      1.0  0.43191  0.41789  0.70785  1.0000
  C   C84       1.0  0.67160  0.55280  0.02320  1.0000
  H   H149      1.0  0.69257  0.57256  0.96056  1.0000
  H   H150      1.0  0.62902  0.56231  0.03633  1.0000
  H   H151      1.0  0.71228  0.57922  0.07035  1.0000
  C   C85       1.0  0.33000  0.29090  0.87170  1.0000
  H   H152      1.0  0.28493  0.27745  0.83221  1.0000
  H   H153      1.0  0.32627  0.24380  0.89763  1.0000
  H   H154      1.0  0.33208  0.32443  0.92313  1.0000
  N   N31       1.0  0.52530  0.33280  0.83890  1.0000
  N   N32       1.0  0.59070  0.37030  0.89900  1.0000
  N   N33       1.0  0.50570  0.40900  0.93590  1.0000
  C   C86       1.0  0.57800  0.41570  0.95570  1.0000
  C   C87       1.0  0.47510  0.35670  0.86340  1.0000
  C   C88       1.0  0.40440  0.33390  0.81150  1.0000
  N   N34       1.0  0.80750  0.47470  0.83890  1.0000
  N   N35       1.0  0.77960  0.40930  0.89900  1.0000
  N   N36       1.0  0.90330  0.49430  0.93590  1.0000
  C   C89       1.0  0.83770  0.42200  0.95570  1.0000
  C   C90       1.0  0.88160  0.52490  0.86340  1.0000
  C   C91       1.0  0.92950  0.59560  0.81150  1.0000
  H   H155      1.0  0.89463  0.59910  0.76388  1.0000
  C   C92       1.0  0.82320  0.35830  0.02700  1.0000
  H   H156      1.0  0.76966  0.31385  0.01811  1.0000
  C   C93       1.0  0.83180  0.38900  0.12890  1.0000
  H   H157      1.0  0.79688  0.40947  0.13834  1.0000
  H   H158      1.0  0.81879  0.34683  0.17332  1.0000
  H   H159      1.0  0.88514  0.43009  0.13931  1.0000
  C   C94       1.0  0.00160  0.60820  0.75600  1.0000
  H   H160      1.0  0.02615  0.65902  0.72596  1.0000
  H   H161      1.0  0.03823  0.60531  0.79925  1.0000
  H   H162      1.0  0.98598  0.56809  0.70785  1.0000
  C   C95       1.0  0.88120  0.32840  0.02320  1.0000
  H   H163      1.0  0.87998  0.30743  0.96056  1.0000
  H   H164      1.0  0.93329  0.37098  0.03633  1.0000
  H   H165      1.0  0.86694  0.28772  0.07035  1.0000
  C   C96       1.0  0.96090  0.67000  0.87170  1.0000
  H   H166      1.0  0.99252  0.71507  0.83221  1.0000
  H   H167      1.0  0.91753  0.67373  0.89763  1.0000
  H   H168      1.0  0.99235  0.66792  0.92313  1.0000
  Cu  Cu1       1.0  0.66667  0.33333  0.60138  1.0000
  Cu  Cu2       1.0  0.33333  0.66667  0.10138  1.0000
  Cu  Cu3       1.0  0.33333  0.66667  0.39862  1.0000
  Cu  Cu4       1.0  0.66667  0.33333  0.89862  1.0000
  Cu  Cu5       1.0  0.73834  0.26166  0.75000  1.0000
  Cu  Cu6       1.0  0.73834  0.47668  0.75000  1.0000
  Cu  Cu7       1.0  0.52332  0.26166  0.75000  1.0000
  Cu  Cu8       1.0  0.26166  0.73834  0.25000  1.0000
  Cu  Cu9       1.0  0.26166  0.52332  0.25000  1.0000
  Cu  Cu10      1.0  0.47668  0.73834  0.25000  1.0000
  Cu  Cu11      1.0  0.00000  0.45958  0.50000  1.0000
  Cu  Cu12      1.0  0.54042  0.54042  0.50000  1.0000
  Cu  Cu13      1.0  0.45958  0.00000  0.50000  1.0000
  Cu  Cu14      1.0  0.00000  0.54042  0.00000  1.0000
  Cu  Cu15      1.0  0.45958  0.45958  0.00000  1.0000
  Cu  Cu16      1.0  0.54042  0.00000  0.00000  1.0000
