data_image0
_chemical_formula_structural       N2O6C2HC2H3C2HC2H3N2O6C2HC2H3C2HC2H3N2O6C2HC2H3C2HC2H3N2O6C2HC2H3C2HC2H3CHC2H3N2O6C2HC2H3CN2O6C2HC2H3C2HC2H3Cu2OCu2OCu2OCu2OCa2Cu2OCu2O
_chemical_formula_sum              "N12 O42 C48 H48 Cu12 Ca2"
_cell_length_a       17.6597
_cell_length_b       17.6597
_cell_length_c       13.4462
_cell_angle_alpha    90
_cell_angle_beta     90
_cell_angle_gamma    120

_space_group_name_H-M_alt    "P 1"
_space_group_IT_number       1

loop_
  _space_group_symop_operation_xyz
  'x, y, z'

loop_
  _atom_site_type_symbol
  _atom_site_label
  _atom_site_symmetry_multiplicity
  _atom_site_fract_x
  _atom_site_fract_y
  _atom_site_fract_z
  _atom_site_occupancy
  N   N1        1.0  0.89960  0.40390  0.70610  1.0000
  N   N2        1.0  0.09510  0.59640  0.73220  1.0000
  O   O1        1.0  0.76540  0.32440  0.59290  1.0000
  O   O2        1.0  0.98720  0.55350  0.61540  1.0000
  O   O3        1.0  0.70660  0.19890  0.68250  1.0000
  O   O4        1.0  0.01330  0.44590  0.82520  1.0000
  O   O5        1.0  0.23650  0.67880  0.83840  1.0000
  O   O6        1.0  0.29600  0.79950  0.75250  1.0000
  C   C1        1.0  0.76720  0.27720  0.66820  1.0000
  C   C2        1.0  0.84180  0.31980  0.74330  1.0000
  H   H1        1.0  0.87090  0.28550  0.75280  1.0000
  C   C3        1.0  0.02240  0.54360  0.69020  1.0000
  C   C4        1.0  0.79870  0.32920  0.84570  1.0000
  H   H2        1.0  0.84310  0.35530  0.89590  1.0000
  H   H3        1.0  0.75420  0.27240  0.86740  1.0000
  H   H4        1.0  0.77330  0.36550  0.83430  1.0000
  C   C5        1.0  0.23700  0.72390  0.76790  1.0000
  C   C6        1.0  0.16080  0.69000  0.69920  1.0000
  H   H5        1.0  0.17830  0.69230  0.62970  1.0000
  C   C7        1.0  0.97480  0.45740  0.74640  1.0000
  C   C8        1.0  0.11100  0.74650  0.71770  1.0000
  H   H6        1.0  0.06240  0.72650  0.67290  1.0000
  H   H7        1.0  0.15120  0.80740  0.70610  1.0000
  H   H8        1.0  0.09020  0.73840  0.78500  1.0000
  N   N3        1.0  0.59610  0.49570  0.70610  1.0000
  N   N4        1.0  0.40360  0.49870  0.73220  1.0000
  O   O7        1.0  0.67560  0.44100  0.59290  1.0000
  O   O8        1.0  0.44650  0.43370  0.61540  1.0000
  O   O9        1.0  0.80110  0.50770  0.68250  1.0000
  O   O10       1.0  0.55410  0.56740  0.82520  1.0000
  O   O11       1.0  0.32120  0.55770  0.83840  1.0000
  O   O12       1.0  0.20050  0.49650  0.75250  1.0000
  C   C9        1.0  0.72280  0.49000  0.66820  1.0000
  C   C10       1.0  0.68020  0.52200  0.74330  1.0000
  H   H9        1.0  0.71450  0.58540  0.75280  1.0000
  C   C11       1.0  0.45640  0.47880  0.69020  1.0000
  C   C12       1.0  0.67080  0.46950  0.84570  1.0000
  H   H10       1.0  0.64470  0.48780  0.89590  1.0000
  H   H11       1.0  0.72760  0.48180  0.86740  1.0000
  H   H12       1.0  0.63450  0.40780  0.83430  1.0000
  C   C13       1.0  0.27610  0.51310  0.76790  1.0000
  C   C14       1.0  0.31000  0.47080  0.69920  1.0000
  H   H13       1.0  0.30770  0.48600  0.62970  1.0000
  C   C15       1.0  0.54260  0.51740  0.74640  1.0000
  C   C16       1.0  0.25350  0.36450  0.71770  1.0000
  H   H14       1.0  0.27350  0.33590  0.67290  1.0000
  H   H15       1.0  0.19260  0.34380  0.70610  1.0000
  H   H16       1.0  0.26160  0.35180  0.78500  1.0000
  N   N5        1.0  0.50430  0.10040  0.70610  1.0000
  N   N6        1.0  0.50130  0.90490  0.73220  1.0000
  O   O13       1.0  0.55900  0.23460  0.59290  1.0000
  O   O14       1.0  0.56630  0.01280  0.61540  1.0000
  O   O15       1.0  0.49230  0.29340  0.68250  1.0000
  O   O16       1.0  0.43260  0.98670  0.82520  1.0000
  O   O17       1.0  0.44230  0.76350  0.83840  1.0000
  O   O18       1.0  0.50350  0.70400  0.75250  1.0000
  C   C17       1.0  0.51000  0.23280  0.66820  1.0000
  C   C18       1.0  0.47800  0.15820  0.74330  1.0000
  H   H17       1.0  0.41460  0.12910  0.75280  1.0000
  C   C19       1.0  0.52120  0.97760  0.69020  1.0000
  C   C20       1.0  0.53050  0.20130  0.84570  1.0000
  H   H18       1.0  0.51220  0.15690  0.89590  1.0000
  H   H19       1.0  0.51820  0.24580  0.86740  1.0000
  H   H20       1.0  0.59220  0.22670  0.83430  1.0000
  C   C21       1.0  0.48690  0.76300  0.76790  1.0000
  C   C22       1.0  0.52920  0.83920  0.69920  1.0000
  H   H21       1.0  0.51400  0.82170  0.62970  1.0000
  C   C23       1.0  0.48260  0.02520  0.74640  1.0000
  C   C24       1.0  0.63550  0.88900  0.71770  1.0000
  H   H22       1.0  0.66410  0.93760  0.67290  1.0000
  H   H23       1.0  0.65620  0.84880  0.70610  1.0000
  H   H24       1.0  0.64820  0.90980  0.78500  1.0000
  N   N7        1.0  0.10040  0.59610  0.20610  1.0000
  N   N8        1.0  0.90490  0.40360  0.23220  1.0000
  O   O19       1.0  0.23460  0.67560  0.09290  1.0000
  O   O20       1.0  0.01280  0.44650  0.11540  1.0000
  O   O21       1.0  0.29340  0.80110  0.18250  1.0000
  O   O22       1.0  0.98670  0.55410  0.32520  1.0000
  O   O23       1.0  0.76350  0.32120  0.33840  1.0000
  O   O24       1.0  0.70400  0.20050  0.25250  1.0000
  C   C25       1.0  0.23280  0.72280  0.16820  1.0000
  C   C26       1.0  0.15820  0.68020  0.24330  1.0000
  H   H25       1.0  0.12910  0.71450  0.25280  1.0000
  C   C27       1.0  0.97760  0.45640  0.19020  1.0000
  C   C28       1.0  0.20130  0.67080  0.34570  1.0000
  H   H26       1.0  0.15690  0.64470  0.39590  1.0000
  H   H27       1.0  0.24580  0.72760  0.36740  1.0000
  H   H28       1.0  0.22670  0.63450  0.33430  1.0000
  C   C29       1.0  0.76300  0.27610  0.26790  1.0000
  C   C30       1.0  0.83920  0.31000  0.19920  1.0000
  H   H29       1.0  0.82170  0.30770  0.12970  1.0000
  C   C31       1.0  0.02520  0.54260  0.24640  1.0000
  C   C32       1.0  0.88900  0.25350  0.21770  1.0000
  H   H30       1.0  0.93760  0.27350  0.17290  1.0000
  H   H31       1.0  0.84880  0.19260  0.20610  1.0000
  H   H32       1.0  0.90980  0.26160  0.28500  1.0000
  C   C33       1.0  0.69000  0.52920  0.19920  1.0000
  H   H33       1.0  0.69230  0.51400  0.12970  1.0000
  C   C34       1.0  0.45740  0.48260  0.24640  1.0000
  C   C35       1.0  0.74650  0.63550  0.21770  1.0000
  H   H34       1.0  0.72650  0.66410  0.17290  1.0000
  H   H35       1.0  0.80740  0.65620  0.20610  1.0000
  H   H36       1.0  0.73840  0.64820  0.28500  1.0000
  N   N9        1.0  0.40390  0.50430  0.20610  1.0000
  N   N10       1.0  0.59640  0.50130  0.23220  1.0000
  O   O25       1.0  0.32440  0.55900  0.09290  1.0000
  O   O26       1.0  0.55350  0.56630  0.11540  1.0000
  O   O27       1.0  0.19890  0.49230  0.18250  1.0000
  O   O28       1.0  0.44590  0.43260  0.32520  1.0000
  O   O29       1.0  0.67880  0.44230  0.33840  1.0000
  O   O30       1.0  0.79950  0.50350  0.25250  1.0000
  C   C36       1.0  0.27720  0.51000  0.16820  1.0000
  C   C37       1.0  0.31980  0.47800  0.24330  1.0000
  H   H37       1.0  0.28550  0.41460  0.25280  1.0000
  C   C38       1.0  0.54360  0.52120  0.19020  1.0000
  C   C39       1.0  0.32920  0.53050  0.34570  1.0000
  H   H38       1.0  0.35530  0.51220  0.39590  1.0000
  H   H39       1.0  0.27240  0.51820  0.36740  1.0000
  H   H40       1.0  0.36550  0.59220  0.33430  1.0000
  C   C40       1.0  0.72390  0.48690  0.26790  1.0000
  N   N11       1.0  0.49570  0.89960  0.20610  1.0000
  N   N12       1.0  0.49870  0.09510  0.23220  1.0000
  O   O31       1.0  0.44100  0.76540  0.09290  1.0000
  O   O32       1.0  0.43370  0.98720  0.11540  1.0000
  O   O33       1.0  0.50770  0.70660  0.18250  1.0000
  O   O34       1.0  0.56740  0.01330  0.32520  1.0000
  O   O35       1.0  0.55770  0.23650  0.33840  1.0000
  O   O36       1.0  0.49650  0.29600  0.25250  1.0000
  C   C41       1.0  0.49000  0.76720  0.16820  1.0000
  C   C42       1.0  0.52200  0.84180  0.24330  1.0000
  H   H41       1.0  0.58540  0.87090  0.25280  1.0000
  C   C43       1.0  0.47880  0.02240  0.19020  1.0000
  C   C44       1.0  0.46950  0.79870  0.34570  1.0000
  H   H42       1.0  0.48780  0.84310  0.39590  1.0000
  H   H43       1.0  0.48180  0.75420  0.36740  1.0000
  H   H44       1.0  0.40780  0.77330  0.33430  1.0000
  C   C45       1.0  0.51310  0.23700  0.26790  1.0000
  C   C46       1.0  0.47080  0.16080  0.19920  1.0000
  H   H45       1.0  0.48600  0.17830  0.12970  1.0000
  C   C47       1.0  0.51740  0.97480  0.24640  1.0000
  C   C48       1.0  0.36450  0.11100  0.21770  1.0000
  H   H46       1.0  0.33590  0.06240  0.17290  1.0000
  H   H47       1.0  0.34380  0.15120  0.20610  1.0000
  H   H48       1.0  0.35180  0.09020  0.28500  1.0000
  Cu  Cu1       1.0  0.86783  0.44540  0.59162  1.0000
  Cu  Cu2       1.0  0.86827  0.44447  0.34303  1.0000
  O   O37       1.0  0.82930  0.46640  0.46840  1.0000
  Cu  Cu3       1.0  0.42243  0.86783  0.09162  1.0000
  Cu  Cu4       1.0  0.42380  0.86827  0.84303  1.0000
  O   O38       1.0  0.36290  0.82930  0.96840  1.0000
  Cu  Cu5       1.0  0.13217  0.55460  0.09162  1.0000
  Cu  Cu6       1.0  0.13173  0.55553  0.84303  1.0000
  O   O39       1.0  0.17070  0.53360  0.96840  1.0000
  Cu  Cu7       1.0  0.55460  0.42243  0.59162  1.0000
  Cu  Cu8       1.0  0.55553  0.42380  0.34303  1.0000
  O   O40       1.0  0.53360  0.36290  0.46840  1.0000
  Ca  Ca1       1.0  0.66667  0.33333  0.46710  1.0000
  Ca  Ca2       1.0  0.33333  0.66667  0.96710  1.0000
  Cu  Cu9       1.0  0.44540  0.57757  0.09162  1.0000
  Cu  Cu10      1.0  0.44447  0.57620  0.84303  1.0000
  O   O41       1.0  0.46640  0.63710  0.96840  1.0000
  Cu  Cu11      1.0  0.57757  0.13217  0.59162  1.0000
  Cu  Cu12      1.0  0.57620  0.13173  0.34303  1.0000
  O   O42       1.0  0.63710  0.17070  0.46840  1.0000
