data_image0
_chemical_formula_structural       O2C4OHO2C4OHC4OHO2C4OHO4C4OHO2C4OHC2OHOHO2C4O2C2O2COC6HO2HOCO3C5HC3OHO3HO3C2OHC4OC2O2C4OHC4OHO4C4OHO2C4OHNCS2NCNCS2NCNCS2NCNCS2NCNCSMg18O2C4OHO2C4OHC4OHO2C4OHO4C4OHO2C4OHC2OHOHO2C4O2C2O2COC6HO2HOCO3C5HC3OHO3HO3C2OHC4OC2O2C4OHC4OHO4C4OHO2C4OHNCS2NCNCS2NCNCS2NCNCS2NCNCSMg18
_chemical_formula_sum              "O108 C162 H36 N18 S18 Mg36"
_cell_length_a       25.9075
_cell_length_b       25.9075
_cell_length_c       13.8332
_cell_angle_alpha    90
_cell_angle_beta     90
_cell_angle_gamma    120

_space_group_name_H-M_alt    "P 1"
_space_group_IT_number       1

loop_
  _space_group_symop_operation_xyz
  'x, y, z'

loop_
  _atom_site_type_symbol
  _atom_site_label
  _atom_site_symmetry_multiplicity
  _atom_site_fract_x
  _atom_site_fract_y
  _atom_site_fract_z
  _atom_site_occupancy
  O   O1        1.0  0.01081  0.41070  0.44355  1.0000
  O   O2        1.0  0.99263  0.36665  0.12630  1.0000
  C   C1        1.0  0.99768  0.45030  0.48489  1.0000
  C   C2        1.0  0.97250  0.40128  0.15149  1.0000
  C   C3        1.0  0.00421  0.49767  0.42819  1.0000
  C   C4        1.0  0.97816  0.44722  0.08293  1.0000
  O   O3        1.0  0.94994  0.39635  0.23661  1.0000
  H   H1        1.0  0.02121  0.50154  0.35476  1.0000
  O   O4        1.0  0.96572  0.58125  0.10071  1.0000
  O   O5        1.0  0.00634  0.63799  0.42362  1.0000
  C   C5        1.0  0.97420  0.54020  0.05946  1.0000
  C   C6        1.0  0.00563  0.59138  0.39171  1.0000
  C   C7        1.0  0.96682  0.49173  0.11590  1.0000
  C   C8        1.0  0.99245  0.54189  0.46114  1.0000
  O   O6        1.0  0.01591  0.58422  0.30469  1.0000
  H   H2        1.0  0.95575  0.49277  0.19142  1.0000
  C   C9        1.0  0.64160  0.87323  0.22632  1.0000
  C   C10       1.0  0.67281  0.92460  0.05872  1.0000
  C   C11       1.0  0.63427  0.82470  0.28252  1.0000
  C   C12       1.0  0.65933  0.87481  0.12773  1.0000
  O   O7        1.0  0.68335  0.91768  0.47172  1.0000
  H   H3        1.0  0.62402  0.82608  0.35835  1.0000
  O   O8        1.0  0.67607  0.74266  0.10877  1.0000
  O   O9        1.0  0.65862  0.69870  0.29109  1.0000
  C   C13       1.0  0.66350  0.78256  0.15044  1.0000
  C   C14       1.0  0.63871  0.73341  0.31683  1.0000
  C   C15       1.0  0.67024  0.83015  0.09409  1.0000
  C   C16       1.0  0.64468  0.77971  0.24882  1.0000
  O   O10       1.0  0.61597  0.72819  0.40186  1.0000
  H   H4        1.0  0.68694  0.83394  0.02046  1.0000
  O   O11       1.0  0.63347  0.91441  0.26792  1.0000
  O   O12       1.0  0.67345  0.97111  0.09092  1.0000
  O   O13       1.0  0.29935  0.24720  0.43462  1.0000
  O   O14       1.0  0.33953  0.30400  0.25729  1.0000
  C   C17       1.0  0.30725  0.20591  0.39288  1.0000
  C   C18       1.0  0.33881  0.25741  0.22523  1.0000
  C   C19       1.0  0.29950  0.15712  0.44888  1.0000
  C   C20       1.0  0.32500  0.20755  0.29429  1.0000
  O   O15       1.0  0.34972  0.25062  0.13839  1.0000
  H   H5        1.0  0.28847  0.15798  0.02453  1.0000
  O   O16       1.0  0.34226  0.07575  0.27518  1.0000
  O   O17       1.0  0.32496  0.03175  0.45710  1.0000
  C   C21       1.0  0.32933  0.11541  0.31683  1.0000
  C   C22       1.0  0.30456  0.06606  0.48295  1.0000
  C   C23       1.0  0.33576  0.16286  0.26044  1.0000
  C   C24       1.0  0.31024  0.11232  0.41513  1.0000
  O   O18       1.0  0.28175  0.06052  0.06799  1.0000
  H   H6        1.0  0.35237  0.16675  0.18673  1.0000
  C   C25       1.0  0.50413  0.50743  0.42724  1.0000
  C   C26       1.0  0.55454  0.53250  0.08192  1.0000
  O   O19       1.0  0.60595  0.55518  0.23506  1.0000
  H   H7        1.0  0.50013  0.52032  0.35372  1.0000
  O   O20       1.0  0.41677  0.43314  0.30469  1.0000
  H   H8        1.0  0.50797  0.46580  0.19178  1.0000
  O   O21       1.0  0.41981  0.38646  0.10103  1.0000
  O   O22       1.0  0.36329  0.36962  0.42378  1.0000
  C   C27       1.0  0.46101  0.43581  0.05953  1.0000
  C   C28       1.0  0.40975  0.41558  0.39167  1.0000
  C   C29       1.0  0.50940  0.47722  0.11582  1.0000
  C   C30       1.0  0.45943  0.45190  0.46092  1.0000
  O   O23       1.0  0.59135  0.60100  0.44198  1.0000
  O   O24       1.0  0.63530  0.62746  0.12459  1.0000
  C   C31       1.0  0.55158  0.54843  0.48363  1.0000
  C   C32       1.0  0.60072  0.57277  0.15021  1.0000
  O   O25       1.0  0.08683  0.71993  0.26732  1.0000
  O   O26       1.0  0.03032  0.70335  0.08997  1.0000
  C   C33       1.0  0.12806  0.76921  0.22571  1.0000
  O   O27       1.0  0.25842  0.93426  0.10831  1.0000
  C   C34       1.0  0.17642  0.81056  0.28199  1.0000
  C   C35       1.0  0.21867  0.88170  0.14985  1.0000
  C   C36       1.0  0.26770  0.90603  0.31644  1.0000
  C   C37       1.0  0.17126  0.84079  0.09338  1.0000
  C   C38       1.0  0.22160  0.86578  0.24809  1.0000
  C   C39       1.0  0.12652  0.78533  0.12712  1.0000
  H   H9        1.0  0.16729  0.85373  0.01988  1.0000
  O   O28       1.0  0.30243  0.96064  0.29063  1.0000
  O   O29       1.0  0.27268  0.88847  0.40146  1.0000
  H   H10       1.0  0.17482  0.79923  0.35801  1.0000
  O   O30       1.0  0.08387  0.76695  0.47103  1.0000
  C   C40       1.0  0.07683  0.74925  0.05794  1.0000
  O   O31       1.0  0.75335  0.05361  0.43484  1.0000
  O   O32       1.0  0.92369  0.26914  0.27667  1.0000
  O   O33       1.0  0.96770  0.29527  0.45972  1.0000
  C   C41       1.0  0.88396  0.21650  0.31815  1.0000
  C   C42       1.0  0.93271  0.24061  0.48517  1.0000
  C   C43       1.0  0.83676  0.17530  0.26159  1.0000
  C   C44       1.0  0.88674  0.20056  0.41650  1.0000
  C   C45       1.0  0.79252  0.11941  0.29490  1.0000
  H   H11       1.0  0.83260  0.18807  0.18807  1.0000
  C   C46       1.0  0.84183  0.14518  0.45020  1.0000
  C   C47       1.0  0.79406  0.10330  0.39351  1.0000
  C   C48       1.0  0.74312  0.08285  0.22543  1.0000
  O   O34       1.0  0.93751  0.22281  0.07007  1.0000
  H   H12       1.0  0.84014  0.13410  0.02634  1.0000
  O   O35       1.0  0.69685  0.03666  0.25737  1.0000
  O   O36       1.0  0.75015  0.10044  0.13845  1.0000
  O   O37       1.0  0.56766  0.98436  0.30507  1.0000
  H   H13       1.0  0.53428  0.04171  0.19229  1.0000
  O   O38       1.0  0.37331  0.00920  0.12359  1.0000
  O   O39       1.0  0.61425  0.03432  0.10136  1.0000
  O   O40       1.0  0.63103  0.99417  0.42418  1.0000
  C   C49       1.0  0.56473  0.02566  0.05986  1.0000
  C   C50       1.0  0.58504  0.99462  0.39217  1.0000
  O   O41       1.0  0.39983  0.99138  0.44170  1.0000
  H   H14       1.0  0.48033  0.97981  0.35380  1.0000
  C   C51       1.0  0.45210  0.00350  0.48348  1.0000
  C   C52       1.0  0.42768  0.02836  0.14994  1.0000
  C   C53       1.0  0.49307  0.99684  0.42734  1.0000
  C   C54       1.0  0.46794  0.02216  0.08209  1.0000
  O   O42       1.0  0.44511  0.05083  0.23518  1.0000
  C   C55       1.0  0.52308  0.03216  0.11621  1.0000
  C   C56       1.0  0.54861  0.00780  0.46126  1.0000
  O   O43       1.0  0.06534  0.32356  0.11002  1.0000
  O   O44       1.0  0.03929  0.34163  0.29255  1.0000
  C   C57       1.0  0.11778  0.33582  0.15143  1.0000
  C   C58       1.0  0.09378  0.36073  0.31830  1.0000
  C   C59       1.0  0.15878  0.32939  0.09486  1.0000
  C   C60       1.0  0.13387  0.35456  0.24996  1.0000
  O   O45       1.0  0.11147  0.38319  0.40344  1.0000
  H   H15       1.0  0.14596  0.31253  0.02126  1.0000
  C   C61       1.0  0.23088  0.35850  0.22679  1.0000
  C   C62       1.0  0.25103  0.32757  0.05880  1.0000
  C   C63       1.0  0.18920  0.36478  0.28357  1.0000
  C   C64       1.0  0.21453  0.34058  0.12823  1.0000
  O   O46       1.0  0.28059  0.36739  0.26783  1.0000
  H   H16       1.0  0.20057  0.37430  0.35961  1.0000
  O   O47       1.0  0.29724  0.32740  0.09041  1.0000
  O   O48       1.0  0.23348  0.31717  0.47176  1.0000
  O   O49       1.0  0.73299  0.65788  0.27545  1.0000
  O   O50       1.0  0.70653  0.67541  0.45785  1.0000
  C   C65       1.0  0.78554  0.67066  0.31694  1.0000
  C   C66       1.0  0.76108  0.69503  0.48381  1.0000
  C   C67       1.0  0.82685  0.66479  0.26038  1.0000
  C   C68       1.0  0.80147  0.68934  0.41550  1.0000
  O   O51       1.0  0.77864  0.71759  0.06891  1.0000
  H   H17       1.0  0.81421  0.64787  0.18680  1.0000
  O   O52       1.0  0.94829  0.70249  0.43395  1.0000
  O   O53       1.0  0.96458  0.66180  0.25674  1.0000
  C   C69       1.0  0.89875  0.69386  0.39259  1.0000
  C   C70       1.0  0.91897  0.66298  0.22468  1.0000
  C   C71       1.0  0.85691  0.69991  0.44921  1.0000
  C   C72       1.0  0.88261  0.67619  0.29393  1.0000
  O   O54       1.0  0.90178  0.65322  0.13747  1.0000
  H   H18       1.0  0.86815  0.70935  0.02530  1.0000
  N   N1        1.0  0.86925  0.56714  0.45364  1.0000
  C   C73       1.0  0.84124  0.53854  0.38645  1.0000
  S   S1        1.0  0.80320  0.49852  0.29211  1.0000
  S   S2        1.0  0.46665  0.82955  0.46276  1.0000
  N   N2        1.0  0.53678  0.89926  0.12044  1.0000
  C   C74       1.0  0.50695  0.87022  0.05499  1.0000
  N   N3        1.0  0.20313  0.23225  0.28747  1.0000
  C   C75       1.0  0.17337  0.20133  0.22360  1.0000
  S   S3        1.0  0.13261  0.15815  0.13376  1.0000
  S   S4        1.0  0.50305  0.30413  0.29363  1.0000
  N   N4        1.0  0.43482  0.30484  0.45337  1.0000
  C   C76       1.0  0.46310  0.30374  0.38696  1.0000
  N   N5        1.0  0.10151  0.63789  0.12067  1.0000
  C   C77       1.0  0.12949  0.63649  0.05405  1.0000
  S   S5        1.0  0.16886  0.63648  0.46024  1.0000
  S   S6        1.0  0.83613  0.97026  0.12779  1.0000
  N   N6        1.0  0.76896  0.97196  0.28835  1.0000
  C   C78       1.0  0.79681  0.97037  0.22166  1.0000
  N   N7        1.0  0.69488  0.13062  0.45292  1.0000
  C   C79       1.0  0.69633  0.15895  0.38472  1.0000
  S   S7        1.0  0.69621  0.19652  0.28842  1.0000
  S   S8        1.0  0.36308  0.52973  0.45554  1.0000
  N   N8        1.0  0.36157  0.46368  0.11991  1.0000
  C   C80       1.0  0.36303  0.49205  0.05178  1.0000
  N   N9        1.0  0.03004  0.79837  0.28608  1.0000
  C   C81       1.0  0.03188  0.82811  0.21971  1.0000
  S   S9        1.0  0.03216  0.86804  0.12641  1.0000
  Mg  Mg1       1.0  0.04655  0.36643  0.00788  1.0000
  Mg  Mg2       1.0  0.03053  0.64309  0.19418  1.0000
  Mg  Mg3       1.0  0.65283  0.62072  0.33956  1.0000
  Mg  Mg4       1.0  0.71336  0.69971  0.17291  1.0000
  Mg  Mg5       1.0  0.69766  0.97654  0.36151  1.0000
  Mg  Mg6       1.0  0.94565  0.63787  0.02741  1.0000
  Mg  Mg7       1.0  0.37993  0.03313  0.33936  1.0000
  Mg  Mg8       1.0  0.69111  0.05547  0.02815  1.0000
  Mg  Mg9       1.0  0.63426  0.68110  0.00639  1.0000
  Mg  Mg10      1.0  0.61241  0.97032  0.19481  1.0000
  Mg  Mg11      1.0  0.30101  0.01432  0.17254  1.0000
  Mg  Mg12      1.0  0.35759  0.38836  0.19454  1.0000
  Mg  Mg13      1.0  0.27874  0.30344  0.36157  1.0000
  Mg  Mg14      1.0  0.96795  0.34910  0.34119  1.0000
  Mg  Mg15      1.0  0.02494  0.72253  0.36064  1.0000
  Mg  Mg16      1.0  0.36390  0.30938  0.02795  1.0000
  Mg  Mg17      1.0  0.31968  0.95398  0.00572  1.0000
  Mg  Mg18      1.0  0.98527  0.28785  0.17447  1.0000
  O   O55       1.0  0.01081  0.41070  0.94355  1.0000
  O   O56       1.0  0.99263  0.36665  0.62630  1.0000
  C   C82       1.0  0.99768  0.45030  0.98489  1.0000
  C   C83       1.0  0.97250  0.40128  0.65149  1.0000
  C   C84       1.0  0.00421  0.49767  0.92819  1.0000
  C   C85       1.0  0.97816  0.44722  0.58294  1.0000
  O   O57       1.0  0.94994  0.39635  0.73661  1.0000
  H   H19       1.0  0.02121  0.50154  0.85477  1.0000
  O   O58       1.0  0.96572  0.58125  0.60071  1.0000
  O   O59       1.0  0.00634  0.63799  0.92362  1.0000
  C   C86       1.0  0.97420  0.54020  0.55946  1.0000
  C   C87       1.0  0.00563  0.59138  0.89171  1.0000
  C   C88       1.0  0.96682  0.49173  0.61590  1.0000
  C   C89       1.0  0.99245  0.54189  0.96114  1.0000
  O   O60       1.0  0.01591  0.58422  0.80469  1.0000
  H   H20       1.0  0.95575  0.49277  0.69142  1.0000
  C   C90       1.0  0.64160  0.87323  0.72632  1.0000
  C   C91       1.0  0.67281  0.92460  0.55872  1.0000
  C   C92       1.0  0.63427  0.82470  0.78252  1.0000
  C   C93       1.0  0.65933  0.87481  0.62773  1.0000
  O   O61       1.0  0.68335  0.91768  0.97171  1.0000
  H   H21       1.0  0.62402  0.82608  0.85835  1.0000
  O   O62       1.0  0.67607  0.74266  0.60877  1.0000
  O   O63       1.0  0.65862  0.69870  0.79110  1.0000
  C   C94       1.0  0.66350  0.78256  0.65044  1.0000
  C   C95       1.0  0.63871  0.73341  0.81683  1.0000
  C   C96       1.0  0.67024  0.83015  0.59409  1.0000
  C   C97       1.0  0.64468  0.77971  0.74882  1.0000
  O   O64       1.0  0.61597  0.72819  0.90186  1.0000
  H   H22       1.0  0.68694  0.83394  0.52046  1.0000
  O   O65       1.0  0.63347  0.91441  0.76791  1.0000
  O   O66       1.0  0.67345  0.97111  0.59092  1.0000
  O   O67       1.0  0.29935  0.24720  0.93462  1.0000
  O   O68       1.0  0.33953  0.30400  0.75730  1.0000
  C   C98       1.0  0.30725  0.20591  0.89289  1.0000
  C   C99       1.0  0.33881  0.25741  0.72523  1.0000
  C   C100      1.0  0.29950  0.15712  0.94888  1.0000
  C   C101      1.0  0.32500  0.20755  0.79429  1.0000
  O   O69       1.0  0.34972  0.25062  0.63839  1.0000
  H   H23       1.0  0.28847  0.15798  0.52453  1.0000
  O   O70       1.0  0.34226  0.07575  0.77518  1.0000
  O   O71       1.0  0.32496  0.03175  0.95710  1.0000
  C   C102      1.0  0.32933  0.11541  0.81683  1.0000
  C   C103      1.0  0.30456  0.06606  0.98295  1.0000
  C   C104      1.0  0.33576  0.16286  0.76044  1.0000
  C   C105      1.0  0.31024  0.11232  0.91513  1.0000
  O   O72       1.0  0.28175  0.06052  0.56798  1.0000
  H   H24       1.0  0.35237  0.16675  0.68672  1.0000
  C   C106      1.0  0.50413  0.50743  0.92724  1.0000
  C   C107      1.0  0.55454  0.53250  0.58192  1.0000
  O   O73       1.0  0.60595  0.55518  0.73507  1.0000
  H   H25       1.0  0.50013  0.52032  0.85371  1.0000
  O   O74       1.0  0.41677  0.43314  0.80469  1.0000
  H   H26       1.0  0.50797  0.46580  0.69178  1.0000
  O   O75       1.0  0.41981  0.38646  0.60103  1.0000
  O   O76       1.0  0.36329  0.36962  0.92378  1.0000
  C   C108      1.0  0.46101  0.43581  0.55954  1.0000
  C   C109      1.0  0.40975  0.41558  0.89167  1.0000
  C   C110      1.0  0.50940  0.47722  0.61582  1.0000
  C   C111      1.0  0.45943  0.45190  0.96092  1.0000
  O   O77       1.0  0.59135  0.60100  0.94198  1.0000
  O   O78       1.0  0.63530  0.62746  0.62459  1.0000
  C   C112      1.0  0.55158  0.54843  0.98363  1.0000
  C   C113      1.0  0.60072  0.57277  0.65021  1.0000
  O   O79       1.0  0.08683  0.71993  0.76732  1.0000
  O   O80       1.0  0.03032  0.70335  0.58998  1.0000
  C   C114      1.0  0.12806  0.76921  0.72571  1.0000
  O   O81       1.0  0.25842  0.93426  0.60832  1.0000
  C   C115      1.0  0.17642  0.81056  0.78200  1.0000
  C   C116      1.0  0.21867  0.88170  0.64985  1.0000
  C   C117      1.0  0.26770  0.90603  0.81644  1.0000
  C   C118      1.0  0.17126  0.84079  0.59339  1.0000
  C   C119      1.0  0.22160  0.86578  0.74810  1.0000
  C   C120      1.0  0.12652  0.78533  0.62712  1.0000
  H   H27       1.0  0.16729  0.85373  0.51989  1.0000
  O   O82       1.0  0.30243  0.96064  0.79063  1.0000
  O   O83       1.0  0.27268  0.88847  0.90146  1.0000
  H   H28       1.0  0.17482  0.79923  0.85801  1.0000
  O   O84       1.0  0.08387  0.76695  0.97103  1.0000
  C   C121      1.0  0.07683  0.74925  0.55794  1.0000
  O   O85       1.0  0.75335  0.05361  0.93484  1.0000
  O   O86       1.0  0.92369  0.26914  0.77667  1.0000
  O   O87       1.0  0.96770  0.29527  0.95972  1.0000
  C   C122      1.0  0.88396  0.21650  0.81815  1.0000
  C   C123      1.0  0.93271  0.24061  0.98517  1.0000
  C   C124      1.0  0.83676  0.17530  0.76158  1.0000
  C   C125      1.0  0.88674  0.20056  0.91650  1.0000
  C   C126      1.0  0.79252  0.11941  0.79490  1.0000
  H   H29       1.0  0.83260  0.18807  0.68807  1.0000
  C   C127      1.0  0.84183  0.14518  0.95020  1.0000
  C   C128      1.0  0.79406  0.10330  0.89351  1.0000
  C   C129      1.0  0.74312  0.08285  0.72544  1.0000
  O   O88       1.0  0.93751  0.22281  0.57007  1.0000
  H   H30       1.0  0.84014  0.13410  0.52634  1.0000
  O   O89       1.0  0.69685  0.03666  0.75736  1.0000
  O   O90       1.0  0.75015  0.10044  0.63845  1.0000
  O   O91       1.0  0.56766  0.98436  0.80507  1.0000
  H   H31       1.0  0.53428  0.04171  0.69230  1.0000
  O   O92       1.0  0.37331  0.00920  0.62359  1.0000
  O   O93       1.0  0.61425  0.03432  0.60136  1.0000
  O   O94       1.0  0.63103  0.99417  0.92418  1.0000
  C   C130      1.0  0.56473  0.02566  0.55986  1.0000
  C   C131      1.0  0.58504  0.99462  0.89217  1.0000
  O   O95       1.0  0.39983  0.99138  0.94170  1.0000
  H   H32       1.0  0.48033  0.97981  0.85380  1.0000
  C   C132      1.0  0.45210  0.00350  0.98348  1.0000
  C   C133      1.0  0.42768  0.02836  0.64994  1.0000
  C   C134      1.0  0.49307  0.99684  0.92734  1.0000
  C   C135      1.0  0.46794  0.02216  0.58208  1.0000
  O   O96       1.0  0.44511  0.05083  0.73518  1.0000
  C   C136      1.0  0.52308  0.03216  0.61621  1.0000
  C   C137      1.0  0.54861  0.00780  0.96125  1.0000
  O   O97       1.0  0.06534  0.32356  0.61002  1.0000
  O   O98       1.0  0.03929  0.34163  0.79255  1.0000
  C   C138      1.0  0.11778  0.33582  0.65144  1.0000
  C   C139      1.0  0.09378  0.36073  0.81830  1.0000
  C   C140      1.0  0.15878  0.32939  0.59486  1.0000
  C   C141      1.0  0.13387  0.35456  0.74996  1.0000
  O   O99       1.0  0.11147  0.38319  0.90345  1.0000
  H   H33       1.0  0.14596  0.31253  0.52126  1.0000
  C   C142      1.0  0.23088  0.35850  0.72679  1.0000
  C   C143      1.0  0.25103  0.32757  0.55880  1.0000
  C   C144      1.0  0.18920  0.36478  0.78357  1.0000
  C   C145      1.0  0.21453  0.34058  0.62823  1.0000
  O   O100      1.0  0.28059  0.36739  0.76783  1.0000
  H   H34       1.0  0.20057  0.37430  0.85961  1.0000
  O   O101      1.0  0.29724  0.32740  0.59042  1.0000
  O   O102      1.0  0.23348  0.31717  0.97176  1.0000
  O   O103      1.0  0.73299  0.65788  0.77545  1.0000
  O   O104      1.0  0.70653  0.67541  0.95785  1.0000
  C   C146      1.0  0.78554  0.67066  0.81694  1.0000
  C   C147      1.0  0.76108  0.69503  0.98382  1.0000
  C   C148      1.0  0.82685  0.66479  0.76038  1.0000
  C   C149      1.0  0.80147  0.68934  0.91549  1.0000
  O   O105      1.0  0.77864  0.71759  0.56891  1.0000
  H   H35       1.0  0.81421  0.64787  0.68679  1.0000
  O   O106      1.0  0.94829  0.70249  0.93395  1.0000
  O   O107      1.0  0.96458  0.66180  0.75674  1.0000
  C   C150      1.0  0.89875  0.69386  0.89259  1.0000
  C   C151      1.0  0.91897  0.66298  0.72468  1.0000
  C   C152      1.0  0.85691  0.69991  0.94920  1.0000
  C   C153      1.0  0.88261  0.67619  0.79393  1.0000
  O   O108      1.0  0.90178  0.65322  0.63747  1.0000
  H   H36       1.0  0.86815  0.70935  0.52530  1.0000
  N   N10       1.0  0.86925  0.56714  0.95363  1.0000
  C   C154      1.0  0.84124  0.53854  0.88645  1.0000
  S   S10       1.0  0.80320  0.49852  0.79211  1.0000
  S   S11       1.0  0.46665  0.82955  0.96276  1.0000
  N   N11       1.0  0.53678  0.89926  0.62045  1.0000
  C   C155      1.0  0.50695  0.87022  0.55499  1.0000
  N   N12       1.0  0.20313  0.23225  0.78747  1.0000
  C   C156      1.0  0.17337  0.20133  0.72361  1.0000
  S   S12       1.0  0.13261  0.15815  0.63376  1.0000
  S   S13       1.0  0.50305  0.30413  0.79363  1.0000
  N   N13       1.0  0.43482  0.30484  0.95337  1.0000
  C   C157      1.0  0.46310  0.30374  0.88696  1.0000
  N   N14       1.0  0.10151  0.63789  0.62067  1.0000
  C   C158      1.0  0.12949  0.63649  0.55405  1.0000
  S   S14       1.0  0.16886  0.63648  0.96023  1.0000
  S   S15       1.0  0.83613  0.97026  0.62779  1.0000
  N   N15       1.0  0.76896  0.97196  0.78836  1.0000
  C   C159      1.0  0.79681  0.97037  0.72166  1.0000
  N   N16       1.0  0.69488  0.13062  0.95292  1.0000
  C   C160      1.0  0.69633  0.15895  0.88473  1.0000
  S   S16       1.0  0.69621  0.19652  0.78842  1.0000
  S   S17       1.0  0.36308  0.52973  0.95554  1.0000
  N   N17       1.0  0.36157  0.46368  0.61991  1.0000
  C   C161      1.0  0.36303  0.49205  0.55178  1.0000
  N   N18       1.0  0.03004  0.79837  0.78608  1.0000
  C   C162      1.0  0.03188  0.82811  0.71971  1.0000
  S   S18       1.0  0.03216  0.86804  0.62641  1.0000
  Mg  Mg19      1.0  0.04655  0.36643  0.50789  1.0000
  Mg  Mg20      1.0  0.03053  0.64309  0.69418  1.0000
  Mg  Mg21      1.0  0.65283  0.62072  0.83956  1.0000
  Mg  Mg22      1.0  0.71336  0.69971  0.67291  1.0000
  Mg  Mg23      1.0  0.69766  0.97654  0.86151  1.0000
  Mg  Mg24      1.0  0.94565  0.63787  0.52741  1.0000
  Mg  Mg25      1.0  0.37993  0.03313  0.83936  1.0000
  Mg  Mg26      1.0  0.69111  0.05547  0.52815  1.0000
  Mg  Mg27      1.0  0.63426  0.68110  0.50639  1.0000
  Mg  Mg28      1.0  0.61241  0.97032  0.69481  1.0000
  Mg  Mg29      1.0  0.30101  0.01432  0.67254  1.0000
  Mg  Mg30      1.0  0.35759  0.38836  0.69455  1.0000
  Mg  Mg31      1.0  0.27874  0.30344  0.86157  1.0000
  Mg  Mg32      1.0  0.96795  0.34910  0.84118  1.0000
  Mg  Mg33      1.0  0.02494  0.72253  0.86065  1.0000
  Mg  Mg34      1.0  0.36390  0.30938  0.52794  1.0000
  Mg  Mg35      1.0  0.31968  0.95398  0.50572  1.0000
  Mg  Mg36      1.0  0.98527  0.28785  0.67447  1.0000
