data_image0
_chemical_formula_structural       P2O7C2H5OC2H5P2O6HP2O7C2H4P2O7C2H5O6C2H5P2OCH5P2O7CP2O7C2H5P2O7C2H5Sm8
_chemical_formula_sum              "P16 O56 C16 H40 Sm8"
_cell_length_a       9.7637
_cell_length_b       9.764
_cell_length_c       20.5506
_cell_angle_alpha    90
_cell_angle_beta     90
_cell_angle_gamma    90

_space_group_name_H-M_alt    "P 1"
_space_group_IT_number       1

loop_
  _space_group_symop_operation_xyz
  'x, y, z'

loop_
  _atom_site_type_symbol
  _atom_site_label
  _atom_site_symmetry_multiplicity
  _atom_site_fract_x
  _atom_site_fract_y
  _atom_site_fract_z
  _atom_site_occupancy
  P   P1        1.0  0.73146  0.25511  0.87868  1.0000
  P   P2        1.0  0.99273  0.27917  0.95265  1.0000
  O   O1        1.0  0.71020  0.12220  0.91394  1.0000
  O   O2        1.0  0.89670  0.35970  0.99562  1.0000
  O   O3        1.0  0.13730  0.33410  0.94876  1.0000
  O   O4        1.0  0.99470  0.12580  0.96993  1.0000
  O   O5        1.0  0.66210  0.37690  0.90875  1.0000
  O   O6        1.0  0.93390  0.43150  0.84779  1.0000
  O   O7        1.0  0.67570  0.23220  0.80731  1.0000
  C   C1        1.0  0.91520  0.29070  0.87107  1.0000
  C   C2        1.0  0.98450  0.19690  0.82240  1.0000
  H   H1        1.0  0.95140  0.21690  0.77950  1.0000
  H   H2        1.0  0.96420  0.10330  0.83300  1.0000
  H   H3        1.0  0.08170  0.21100  0.82390  1.0000
  H   H4        1.0  0.88470  0.48750  0.86960  1.0000
  H   H5        1.0  0.67450  0.28560  0.77890  1.0000
  O   O8        1.0  0.82430  0.76780  0.30731  1.0000
  C   C3        1.0  0.58480  0.70930  0.37107  1.0000
  C   C4        1.0  0.51550  0.80310  0.32240  1.0000
  H   H6        1.0  0.54860  0.78310  0.27950  1.0000
  H   H7        1.0  0.53580  0.89670  0.33300  1.0000
  H   H8        1.0  0.41830  0.78900  0.32390  1.0000
  H   H9        1.0  0.61530  0.51250  0.36960  1.0000
  H   H10       1.0  0.82550  0.71440  0.27890  1.0000
  P   P3        1.0  0.76854  0.74489  0.37868  1.0000
  P   P4        1.0  0.50727  0.72083  0.45265  1.0000
  O   O9        1.0  0.78980  0.87780  0.41394  1.0000
  O   O10       1.0  0.60330  0.64030  0.49562  1.0000
  O   O11       1.0  0.36270  0.66590  0.44876  1.0000
  O   O12       1.0  0.50530  0.87420  0.46993  1.0000
  O   O13       1.0  0.83790  0.62310  0.40875  1.0000
  O   O14       1.0  0.56610  0.56850  0.34779  1.0000
  H   H11       1.0  0.32550  0.78560  0.72110  1.0000
  P   P5        1.0  0.26854  0.75511  0.62132  1.0000
  P   P6        1.0  0.00727  0.77917  0.54735  1.0000
  O   O15       1.0  0.28980  0.62220  0.58606  1.0000
  O   O16       1.0  0.10330  0.85970  0.50438  1.0000
  O   O17       1.0  0.86270  0.83410  0.55124  1.0000
  O   O18       1.0  0.00530  0.62580  0.53007  1.0000
  O   O19       1.0  0.33790  0.87690  0.59125  1.0000
  O   O20       1.0  0.06610  0.93150  0.65221  1.0000
  O   O21       1.0  0.32430  0.73220  0.69269  1.0000
  C   C5        1.0  0.08480  0.79070  0.62893  1.0000
  C   C6        1.0  0.01550  0.69690  0.67760  1.0000
  H   H12       1.0  0.04860  0.71690  0.72050  1.0000
  H   H13       1.0  0.03580  0.60330  0.66700  1.0000
  H   H14       1.0  0.91830  0.71100  0.67610  1.0000
  H   H15       1.0  0.11530  0.98750  0.63040  1.0000
  P   P7        1.0  0.23146  0.24489  0.12132  1.0000
  P   P8        1.0  0.49273  0.22083  0.04735  1.0000
  O   O22       1.0  0.21020  0.37780  0.08606  1.0000
  O   O23       1.0  0.39670  0.14030  0.00438  1.0000
  O   O24       1.0  0.63730  0.16590  0.05124  1.0000
  O   O25       1.0  0.49470  0.37420  0.03007  1.0000
  O   O26       1.0  0.16210  0.12310  0.09125  1.0000
  O   O27       1.0  0.43390  0.06850  0.15221  1.0000
  O   O28       1.0  0.17570  0.26780  0.19269  1.0000
  C   C7        1.0  0.41520  0.20930  0.12893  1.0000
  C   C8        1.0  0.48450  0.30310  0.17760  1.0000
  H   H16       1.0  0.45140  0.28310  0.22050  1.0000
  H   H17       1.0  0.46420  0.39670  0.16700  1.0000
  H   H18       1.0  0.58170  0.28900  0.17610  1.0000
  H   H19       1.0  0.38470  0.01250  0.13040  1.0000
  H   H20       1.0  0.17450  0.21440  0.22110  1.0000
  O   O29       1.0  0.10330  0.64030  0.00438  1.0000
  O   O30       1.0  0.86270  0.66590  0.05124  1.0000
  O   O31       1.0  0.00530  0.87420  0.03007  1.0000
  O   O32       1.0  0.33790  0.62310  0.09125  1.0000
  O   O33       1.0  0.06610  0.56850  0.15221  1.0000
  O   O34       1.0  0.32430  0.76780  0.19269  1.0000
  C   C9        1.0  0.08480  0.70930  0.12893  1.0000
  C   C10       1.0  0.01550  0.80310  0.17760  1.0000
  H   H21       1.0  0.04860  0.78310  0.22050  1.0000
  H   H22       1.0  0.03580  0.89670  0.16700  1.0000
  H   H23       1.0  0.91830  0.78900  0.17610  1.0000
  H   H24       1.0  0.11530  0.51250  0.13040  1.0000
  H   H25       1.0  0.32550  0.71440  0.22110  1.0000
  P   P9        1.0  0.26854  0.74489  0.12132  1.0000
  P   P10       1.0  0.00727  0.72083  0.04735  1.0000
  O   O35       1.0  0.28980  0.87780  0.08606  1.0000
  C   C11       1.0  0.48450  0.19690  0.67760  1.0000
  H   H26       1.0  0.45140  0.21690  0.72050  1.0000
  H   H27       1.0  0.46420  0.10330  0.66700  1.0000
  H   H28       1.0  0.58170  0.21100  0.67610  1.0000
  H   H29       1.0  0.38470  0.48750  0.63040  1.0000
  H   H30       1.0  0.17450  0.28560  0.72110  1.0000
  P   P11       1.0  0.23146  0.25511  0.62132  1.0000
  P   P12       1.0  0.49273  0.27917  0.54735  1.0000
  O   O36       1.0  0.21020  0.12220  0.58606  1.0000
  O   O37       1.0  0.39670  0.35970  0.50438  1.0000
  O   O38       1.0  0.63730  0.33410  0.55124  1.0000
  O   O39       1.0  0.49470  0.12580  0.53007  1.0000
  O   O40       1.0  0.16210  0.37690  0.59125  1.0000
  O   O41       1.0  0.43390  0.43150  0.65221  1.0000
  O   O42       1.0  0.17570  0.23220  0.69269  1.0000
  C   C12       1.0  0.41520  0.29070  0.62893  1.0000
  P   P13       1.0  0.73146  0.24489  0.37868  1.0000
  P   P14       1.0  0.99273  0.22083  0.45265  1.0000
  O   O43       1.0  0.71020  0.37780  0.41394  1.0000
  O   O44       1.0  0.89670  0.14030  0.49562  1.0000
  O   O45       1.0  0.13730  0.16590  0.44876  1.0000
  O   O46       1.0  0.99470  0.37420  0.46993  1.0000
  O   O47       1.0  0.66210  0.12310  0.40875  1.0000
  O   O48       1.0  0.93390  0.06850  0.34779  1.0000
  O   O49       1.0  0.67570  0.26780  0.30731  1.0000
  C   C13       1.0  0.91520  0.20930  0.37107  1.0000
  C   C14       1.0  0.98450  0.30310  0.32240  1.0000
  H   H31       1.0  0.95140  0.28310  0.27950  1.0000
  H   H32       1.0  0.96420  0.39670  0.33300  1.0000
  H   H33       1.0  0.08170  0.28900  0.32390  1.0000
  H   H34       1.0  0.88470  0.01250  0.36960  1.0000
  H   H35       1.0  0.67450  0.21440  0.27890  1.0000
  P   P15       1.0  0.76854  0.75511  0.87868  1.0000
  P   P16       1.0  0.50727  0.77917  0.95265  1.0000
  O   O50       1.0  0.78980  0.62220  0.91394  1.0000
  O   O51       1.0  0.60330  0.85970  0.99562  1.0000
  O   O52       1.0  0.36270  0.83410  0.94876  1.0000
  O   O53       1.0  0.50530  0.62580  0.96993  1.0000
  O   O54       1.0  0.83790  0.87690  0.90875  1.0000
  O   O55       1.0  0.56610  0.93150  0.84779  1.0000
  O   O56       1.0  0.82430  0.73220  0.80731  1.0000
  C   C15       1.0  0.58480  0.79070  0.87107  1.0000
  C   C16       1.0  0.51550  0.69690  0.82240  1.0000
  H   H36       1.0  0.54860  0.71690  0.77950  1.0000
  H   H37       1.0  0.53580  0.60330  0.83300  1.0000
  H   H38       1.0  0.41830  0.71100  0.82390  1.0000
  H   H39       1.0  0.61530  0.98750  0.86960  1.0000
  H   H40       1.0  0.82550  0.78560  0.77890  1.0000
  Sm  Sm1       1.0  0.79038  0.00361  0.00973  1.0000
  Sm  Sm2       1.0  0.70962  0.50361  0.00973  1.0000
  Sm  Sm3       1.0  0.29038  0.49639  0.99027  1.0000
  Sm  Sm4       1.0  0.79038  0.49639  0.50973  1.0000
  Sm  Sm5       1.0  0.20962  0.50361  0.49027  1.0000
  Sm  Sm6       1.0  0.29038  0.00361  0.49027  1.0000
  Sm  Sm7       1.0  0.70962  0.99639  0.50973  1.0000
  Sm  Sm8       1.0  0.20962  0.99639  0.99027  1.0000
