data_image0
_chemical_formula_structural       CHN3CHCHCHN3CHNCHN2CHCHN5CHNCHCHCHN5CHNCHNCHCNHNCHN2CNHCHN2CHNHCHN3C2HCHN3CHCNHN2CHCHN4CHN2CHCHCHN5CHNCHN2HCHCNCHNCHN3CHNCNHW6O31SiCu6W12O31SiCu6W6
_chemical_formula_sum              "C40 H40 N60 W24 O62 Si2 Cu12"
_cell_length_a       11.926
_cell_length_b       14.419
_cell_length_c       24.311
_cell_angle_alpha    90
_cell_angle_beta     103.424
_cell_angle_gamma    90

_space_group_name_H-M_alt    "P 1"
_space_group_IT_number       1

loop_
  _space_group_symop_operation_xyz
  'x, y, z'

loop_
  _atom_site_type_symbol
  _atom_site_label
  _atom_site_symmetry_multiplicity
  _atom_site_fract_x
  _atom_site_fract_y
  _atom_site_fract_z
  _atom_site_occupancy
  C   C1        1.0  0.46490  0.92480  0.46280  1.0000
  H   H1        1.0  0.46480  0.98780  0.47110  1.0000
  N   N1        1.0  0.37430  0.87670  0.45450  1.0000
  N   N2        1.0  0.41510  0.78460  0.44730  1.0000
  N   N3        1.0  0.56080  0.88020  0.45910  1.0000
  C   C2        1.0  0.52200  0.79130  0.45120  1.0000
  H   H2        1.0  0.56950  0.74090  0.44890  1.0000
  C   C3        1.0  0.89600  0.17030  0.34470  1.0000
  H   H3        1.0  0.87590  0.10810  0.33940  1.0000
  C   C4        1.0  0.96900  0.30640  0.33620  1.0000
  H   H4        1.0  0.01020  0.35520  0.32550  1.0000
  N   N4        1.0  0.89470  0.21370  0.38760  1.0000
  N   N5        1.0  0.93540  0.30170  0.38220  1.0000
  N   N6        1.0  0.93300  0.22530  0.30410  1.0000
  C   C5        1.0  0.12230  0.54400  0.44070  1.0000
  H   H5        1.0  0.07580  0.59440  0.44430  1.0000
  N   N7        1.0  0.22250  0.55130  0.43870  1.0000
  C   C6        1.0  0.18050  0.40890  0.43220  1.0000
  H   H6        1.0  0.18590  0.34510  0.42790  1.0000
  N   N8        1.0  0.08350  0.45210  0.43690  1.0000
  N   N9        1.0  0.26650  0.46560  0.43440  1.0000
  C   C7        1.0  0.24000  0.67760  0.55290  1.0000
  H   H7        1.0  0.26480  0.61690  0.56080  1.0000
  C   C8        1.0  0.18200  0.81330  0.56010  1.0000
  H   H8        1.0  0.15780  0.86720  0.57500  1.0000
  N   N10       1.0  0.24390  0.72260  0.50650  1.0000
  N   N11       1.0  0.20670  0.80630  0.51120  1.0000
  N   N12       1.0  0.19700  0.72950  0.58640  1.0000
  N   N13       1.0  0.70860  0.04540  0.52200  1.0000
  N   N14       1.0  0.75520  0.13430  0.51730  1.0000
  C   C9        1.0  0.66600  0.05060  0.56900  1.0000
  H   H9        1.0  0.63060  0.00180  0.58320  1.0000
  N   N15       1.0  0.68200  0.13310  0.59170  1.0000
  C   C10       1.0  0.74300  0.18210  0.56400  1.0000
  H   H10       1.0  0.77360  0.24060  0.57450  1.0000
  C   C11       1.0  0.39500  0.67100  0.33500  1.0000
  H   H11       1.0  0.37260  0.73260  0.32830  1.0000
  C   C12       1.0  0.47300  0.52900  0.33280  1.0000
  H   H12       1.0  0.50900  0.47730  0.32210  1.0000
  N   N16       1.0  0.38610  0.62160  0.37800  1.0000
  N   N17       1.0  0.44600  0.61470  0.30000  1.0000
  N   N18       1.0  0.43940  0.53870  0.37860  1.0000
  N   N19       1.0  0.73060  0.29200  0.44850  1.0000
  N   N20       1.0  0.76860  0.37390  0.43930  1.0000
  C   C13       1.0  0.62150  0.29970  0.44710  1.0000
  H   H13       1.0  0.57400  0.25070  0.45200  1.0000
  N   N21       1.0  0.58570  0.39000  0.43740  1.0000
  C   C14       1.0  0.68300  0.43310  0.43600  1.0000
  H   H14       1.0  0.69000  0.49710  0.43290  1.0000
  N   N22       1.0  0.06330  0.96010  0.46190  1.0000
  C   C15       1.0  0.03000  0.05180  0.46060  1.0000
  H   H15       1.0  0.08020  0.10140  0.46230  1.0000
  C   C16       1.0  0.96500  0.91200  0.45840  1.0000
  N   N23       1.0  0.91620  0.06160  0.45680  1.0000
  H   H16       1.0  0.96020  0.84770  0.45600  1.0000
  N   N24       1.0  0.87510  0.96790  0.45890  1.0000
  C   C17       1.0  0.55700  0.99400  0.34730  1.0000
  H   H17       1.0  0.52500  0.93490  0.34050  1.0000
  N   N25       1.0  0.63920  0.01870  0.39200  1.0000
  N   N26       1.0  0.67000  0.10510  0.38670  1.0000
  C   C18       1.0  0.60300  0.13670  0.33960  1.0000
  N   N27       1.0  0.52600  0.07020  0.31260  1.0000
  H   H18       1.0  0.60620  0.19670  0.32610  1.0000
  C   C19       1.0  0.28400  0.11600  0.41930  1.0000
  H   H19       1.0  0.32450  0.13290  0.45530  1.0000
  N   N28       1.0  0.27100  0.16900  0.38020  1.0000
  N   N29       1.0  0.21700  0.11300  0.33520  1.0000
  C   C20       1.0  0.19200  0.03000  0.35670  1.0000
  H   H20       1.0  0.14920  0.98260  0.33550  1.0000
  N   N30       1.0  0.23270  0.02640  0.40780  1.0000
  H   H21       1.0  0.06950  0.25910  0.94890  1.0000
  C   C21       1.0  0.96490  0.07520  0.96280  1.0000
  H   H22       1.0  0.96480  0.01220  0.97110  1.0000
  N   N31       1.0  0.87430  0.12330  0.95450  1.0000
  N   N32       1.0  0.91510  0.21540  0.94730  1.0000
  N   N33       1.0  0.06080  0.11980  0.95910  1.0000
  C   C22       1.0  0.02200  0.20870  0.95120  1.0000
  C   C23       1.0  0.39600  0.82970  0.84470  1.0000
  H   H23       1.0  0.37590  0.89190  0.83940  1.0000
  C   C24       1.0  0.46900  0.69360  0.83620  1.0000
  H   H24       1.0  0.51020  0.64480  0.82550  1.0000
  N   N34       1.0  0.39470  0.78630  0.88760  1.0000
  N   N35       1.0  0.43540  0.69830  0.88220  1.0000
  N   N36       1.0  0.43300  0.77470  0.80410  1.0000
  C   C25       1.0  0.62230  0.45600  0.94070  1.0000
  H   H25       1.0  0.57580  0.40560  0.94430  1.0000
  C   C26       1.0  0.68050  0.59110  0.93220  1.0000
  N   N37       1.0  0.72250  0.44870  0.93870  1.0000
  H   H26       1.0  0.68590  0.65490  0.92790  1.0000
  N   N38       1.0  0.58350  0.54790  0.93690  1.0000
  N   N39       1.0  0.76650  0.53440  0.93440  1.0000
  C   C27       1.0  0.74000  0.32240  0.05290  1.0000
  H   H27       1.0  0.76480  0.38310  0.06080  1.0000
  C   C28       1.0  0.68200  0.18670  0.06010  1.0000
  H   H28       1.0  0.65780  0.13280  0.07500  1.0000
  N   N40       1.0  0.74390  0.27740  0.00650  1.0000
  N   N41       1.0  0.70670  0.19370  0.01120  1.0000
  N   N42       1.0  0.69700  0.27050  0.08640  1.0000
  N   N43       1.0  0.20860  0.95460  0.02200  1.0000
  C   C29       1.0  0.16600  0.94940  0.06900  1.0000
  H   H29       1.0  0.13060  0.99820  0.08320  1.0000
  N   N44       1.0  0.25520  0.86570  0.01730  1.0000
  N   N45       1.0  0.18200  0.86690  0.09170  1.0000
  C   C30       1.0  0.24300  0.81790  0.06400  1.0000
  H   H30       1.0  0.27360  0.75940  0.07450  1.0000
  C   C31       1.0  0.89500  0.32900  0.83500  1.0000
  H   H31       1.0  0.87260  0.26740  0.82830  1.0000
  C   C32       1.0  0.97300  0.47100  0.83280  1.0000
  H   H32       1.0  0.00900  0.52270  0.82210  1.0000
  N   N46       1.0  0.88610  0.37840  0.87800  1.0000
  N   N47       1.0  0.94600  0.38530  0.80000  1.0000
  N   N48       1.0  0.93940  0.46130  0.87860  1.0000
  N   N49       1.0  0.23060  0.70800  0.94850  1.0000
  N   N50       1.0  0.26860  0.62610  0.93930  1.0000
  C   C33       1.0  0.12150  0.70030  0.94710  1.0000
  H   H33       1.0  0.07400  0.74930  0.95200  1.0000
  N   N51       1.0  0.08570  0.61000  0.93740  1.0000
  C   C34       1.0  0.18300  0.56690  0.93600  1.0000
  H   H34       1.0  0.19000  0.50290  0.93290  1.0000
  N   N52       1.0  0.37510  0.03210  0.95890  1.0000
  N   N53       1.0  0.56330  0.03990  0.96190  1.0000
  H   H35       1.0  0.46020  0.15230  0.95600  1.0000
  C   C35       1.0  0.53000  0.94820  0.96060  1.0000
  H   H36       1.0  0.58020  0.89860  0.96230  1.0000
  C   C36       1.0  0.46500  0.08800  0.95840  1.0000
  N   N54       1.0  0.41620  0.93840  0.95680  1.0000
  C   C37       1.0  0.10300  0.86330  0.83960  1.0000
  H   H37       1.0  0.10620  0.80330  0.82610  1.0000
  N   N55       1.0  0.02600  0.92980  0.81260  1.0000
  C   C38       1.0  0.05700  0.00600  0.84730  1.0000
  H   H38       1.0  0.02500  0.06510  0.84050  1.0000
  N   N56       1.0  0.13920  0.98130  0.89200  1.0000
  N   N57       1.0  0.17000  0.89490  0.88670  1.0000
  N   N58       1.0  0.73270  0.97360  0.90780  1.0000
  C   C39       1.0  0.78400  0.88400  0.91930  1.0000
  H   H39       1.0  0.82450  0.86710  0.95530  1.0000
  N   N59       1.0  0.77100  0.83100  0.88020  1.0000
  C   C40       1.0  0.69200  0.97000  0.85670  1.0000
  N   N60       1.0  0.71700  0.88700  0.83520  1.0000
  H   H40       1.0  0.64920  0.01740  0.83550  1.0000
  W   W1        1.0  0.59669  0.73179  0.07042  1.0000
  W   W2        1.0  0.90394  0.51117  0.16585  1.0000
  W   W3        1.0  0.89482  0.68091  0.06546  1.0000
  W   W4        1.0  0.80991  0.91708  0.09102  1.0000
  W   W5        1.0  0.53419  0.79209  0.19510  1.0000
  W   W6        1.0  0.75917  0.97584  0.21845  1.0000
  O   O1        1.0  0.19210  0.28490  0.66950  1.0000
  O   O2        1.0  0.34990  0.15040  0.68380  1.0000
  O   O3        1.0  0.40460  0.32370  0.66360  1.0000
  O   O4        1.0  0.35860  0.27800  0.76210  1.0000
  O   O5        1.0  0.19860  0.43290  0.75160  1.0000
  O   O6        1.0  0.04940  0.39120  0.59780  1.0000
  O   O7        1.0  0.99190  0.21310  0.61590  1.0000
  O   O8        1.0  0.27740  0.33280  0.84300  1.0000
  O   O9        1.0  0.43170  0.20210  0.85780  1.0000
  O   O10       1.0  0.40630  0.47250  0.74410  1.0000
  O   O11       1.0  0.56470  0.45070  0.68740  1.0000
  O   O12       1.0  0.49140  0.37080  0.83800  1.0000
  O   O13       1.0  0.59310  0.18500  0.68520  1.0000
  O   O14       1.0  0.54310  0.14240  0.77940  1.0000
  O   O15       1.0  0.29240  0.09640  0.78720  1.0000
  O   O16       1.0  0.42110  0.99830  0.73560  1.0000
  O   O17       1.0  0.17230  0.15160  0.57220  1.0000
  O   O18       1.0  0.38900  0.18850  0.56870  1.0000
  O   O19       1.0  0.22920  0.32750  0.55570  1.0000
  O   O20       1.0  0.59730  0.31520  0.76510  1.0000
  O   O21       1.0  0.29950  0.00600  0.53420  1.0000
  O   O22       1.0  0.56340  0.32130  0.60760  1.0000
  O   O23       1.0  0.46940  0.04400  0.63700  1.0000
  O   O24       1.0  0.24710  0.99790  0.64140  1.0000
  O   O25       1.0  0.00630  0.34110  0.69960  1.0000
  O   O26       1.0  0.12060  0.09860  0.69640  1.0000
  O   O27       1.0  0.39570  0.45790  0.58920  1.0000
  O   O28       1.0  0.42030  0.34390  0.49720  1.0000
  O   O29       1.0  0.12950  0.22550  0.77140  1.0000
  O   O30       1.0  0.22220  0.17070  0.88610  1.0000
  O   O31       1.0  0.24410  0.47900  0.65690  1.0000
  Si  Si1       1.0  0.32370  0.25980  0.69490  1.0000
  Cu  Cu1       1.0  0.21930  0.91698  0.46140  1.0000
  Cu  Cu2       1.0  0.31700  0.67079  0.44329  1.0000
  Cu  Cu3       1.0  0.71460  0.93181  0.45901  1.0000
  Cu  Cu4       1.0  0.82190  0.17289  0.45284  1.0000
  Cu  Cu5       1.0  0.93210  0.40457  0.43908  1.0000
  Cu  Cu6       1.0  0.43070  0.43535  0.43685  1.0000
  W   W7        1.0  0.60738  0.32242  0.68719  1.0000
  W   W8        1.0  0.54212  0.25209  0.82299  1.0000
  W   W9        1.0  0.34341  0.42417  0.80361  1.0000
  W   W10       1.0  0.52975  0.07703  0.71054  1.0000
  W   W11       1.0  0.26555  0.20593  0.82618  1.0000
  W   W12       1.0  0.10730  0.43043  0.67619  1.0000
  W   W13       1.0  0.09669  0.26821  0.57042  1.0000
  W   W14       1.0  0.40394  0.48883  0.66585  1.0000
  W   W15       1.0  0.39482  0.31909  0.56546  1.0000
  W   W16       1.0  0.30991  0.08292  0.59102  1.0000
  W   W17       1.0  0.03419  0.20791  0.69510  1.0000
  W   W18       1.0  0.25917  0.02416  0.71845  1.0000
  O   O32       1.0  0.69210  0.71510  0.16950  1.0000
  O   O33       1.0  0.84990  0.84960  0.18380  1.0000
  O   O34       1.0  0.90460  0.67630  0.16360  1.0000
  O   O35       1.0  0.85860  0.72200  0.26210  1.0000
  O   O36       1.0  0.69860  0.56710  0.25160  1.0000
  O   O37       1.0  0.54940  0.60880  0.09780  1.0000
  O   O38       1.0  0.49190  0.78690  0.11590  1.0000
  O   O39       1.0  0.77740  0.66720  0.34300  1.0000
  O   O40       1.0  0.93170  0.79790  0.35780  1.0000
  O   O41       1.0  0.90630  0.52750  0.24410  1.0000
  O   O42       1.0  0.06470  0.54930  0.18740  1.0000
  O   O43       1.0  0.99140  0.62920  0.33800  1.0000
  O   O44       1.0  0.09310  0.81500  0.18520  1.0000
  O   O45       1.0  0.04310  0.85760  0.27940  1.0000
  O   O46       1.0  0.79240  0.90360  0.28720  1.0000
  O   O47       1.0  0.92110  0.00170  0.23560  1.0000
  O   O48       1.0  0.67230  0.84840  0.07220  1.0000
  O   O49       1.0  0.88900  0.81150  0.06870  1.0000
  O   O50       1.0  0.72920  0.67250  0.05570  1.0000
  O   O51       1.0  0.09730  0.68480  0.26510  1.0000
  O   O52       1.0  0.79950  0.99400  0.03420  1.0000
  O   O53       1.0  0.06340  0.67870  0.10760  1.0000
  O   O54       1.0  0.96940  0.95600  0.13700  1.0000
  O   O55       1.0  0.74710  0.00210  0.14140  1.0000
  O   O56       1.0  0.50630  0.65890  0.19960  1.0000
  O   O57       1.0  0.62060  0.90140  0.19640  1.0000
  O   O58       1.0  0.89570  0.54210  0.08920  1.0000
  O   O59       1.0  0.92030  0.65610  0.99720  1.0000
  O   O60       1.0  0.62950  0.77450  0.27140  1.0000
  O   O61       1.0  0.72220  0.82930  0.38610  1.0000
  O   O62       1.0  0.74410  0.52100  0.15690  1.0000
  Si  Si2       1.0  0.82370  0.74020  0.19490  1.0000
  Cu  Cu7       1.0  0.71930  0.08302  0.96140  1.0000
  Cu  Cu8       1.0  0.81700  0.32921  0.94329  1.0000
  Cu  Cu9       1.0  0.21460  0.06819  0.95901  1.0000
  Cu  Cu10      1.0  0.32190  0.82711  0.95284  1.0000
  Cu  Cu11      1.0  0.43210  0.59543  0.93908  1.0000
  Cu  Cu12      1.0  0.93070  0.56465  0.93685  1.0000
  W   W19       1.0  0.10738  0.67758  0.18719  1.0000
  W   W20       1.0  0.04212  0.74791  0.32299  1.0000
  W   W21       1.0  0.84341  0.57583  0.30361  1.0000
  W   W22       1.0  0.02975  0.92297  0.21054  1.0000
  W   W23       1.0  0.76555  0.79407  0.32618  1.0000
  W   W24       1.0  0.60730  0.56957  0.17619  1.0000
