data_image0
_chemical_formula_structural       N2C2HC2HCHCHCHCHCHCHNCNCHC2HCHCHCHCHCHCHN2C2HC2HCHCHCHCHCHCHNCNCHC2HCHCHCHCHCHCHCHCHCHCHCHCHN2C2HC2HCHCHNCNCHC2HCHCHCHCHN2C2HC2HCHCHCHCHCHCHNCNCHC2HCHCHCHCHCHCHN2C3HCHCHCHCHCHCHCHCHCHCHCHN2C2HC2HCHCHCHCHCHCHCHCHN2C3HCHN2C3HCHCHCHCHCHCHCHCHCHCHCHCHCHN2C3HCHCHCHCHCHCHCHN2C3HCHN2C3HCHCHCHCHCHCHCHN2C3HCHCHCHCHCHCHCHS2OCHCH2O2HO5S2OCHCH2O2HOCu8
_chemical_formula_sum              "N32 C164 H136 S4 O12 Cu8"
_cell_length_a       22.28
_cell_length_b       22.2
_cell_length_c       11.198
_cell_angle_alpha    90
_cell_angle_beta     90.931
_cell_angle_gamma    90

_space_group_name_H-M_alt    "P 1"
_space_group_IT_number       1

loop_
  _space_group_symop_operation_xyz
  'x, y, z'

loop_
  _atom_site_type_symbol
  _atom_site_label
  _atom_site_symmetry_multiplicity
  _atom_site_fract_x
  _atom_site_fract_y
  _atom_site_fract_z
  _atom_site_occupancy
  N   N1        1.0  0.26133  0.09014  0.99218  1.0000
  N   N2        1.0  0.24425  0.76773  0.02144  1.0000
  C   C1        1.0  0.25353  0.89496  0.02203  1.0000
  C   C2        1.0  0.30510  0.85772  0.02925  1.0000
  H   H1        1.0  0.34944  0.87749  0.03548  1.0000
  C   C3        1.0  0.25717  0.96297  0.01582  1.0000
  C   C4        1.0  0.30251  0.99137  0.95113  1.0000
  H   H2        1.0  0.33664  0.96506  0.90727  1.0000
  C   C5        1.0  0.19765  0.86609  0.01511  1.0000
  H   H3        1.0  0.15663  0.89200  0.00688  1.0000
  C   C6        1.0  0.21811  0.06403  0.06019  1.0000
  H   H4        1.0  0.18715  0.09192  0.10881  1.0000
  C   C7        1.0  0.30392  0.05442  0.94123  1.0000
  H   H5        1.0  0.34054  0.07503  0.89396  1.0000
  C   C8        1.0  0.19417  0.80307  0.01413  1.0000
  H   H6        1.0  0.15059  0.78191  0.00569  1.0000
  C   C9        1.0  0.29950  0.79412  0.02920  1.0000
  H   H7        1.0  0.33928  0.76672  0.03422  1.0000
  C   C10       1.0  0.21456  0.00061  0.07110  1.0000
  H   H8        1.0  0.17959  0.98129  0.12508  1.0000
  N   N3        1.0  0.30118  0.17738  0.80284  1.0000
  C   C11       1.0  0.30346  0.18404  0.41331  1.0000
  N   N4        1.0  0.30043  0.18457  0.15958  1.0000
  C   C12       1.0  0.34376  0.21092  0.74658  1.0000
  H   H9        1.0  0.37509  0.23764  0.79887  1.0000
  C   C13       1.0  0.30369  0.18132  0.54870  1.0000
  C   C14       1.0  0.35432  0.16923  0.34608  1.0000
  H   H10       1.0  0.39427  0.15475  0.39206  1.0000
  C   C15       1.0  0.25099  0.19886  0.34902  1.0000
  H   H11       1.0  0.21027  0.21018  0.39559  1.0000
  C   C16       1.0  0.25058  0.19903  0.22337  1.0000
  H   H12       1.0  0.20913  0.20936  0.17601  1.0000
  C   C17       1.0  0.25939  0.14711  0.73468  1.0000
  H   H13       1.0  0.22365  0.12297  0.77781  1.0000
  C   C18       1.0  0.34545  0.21340  0.61980  1.0000
  H   H14       1.0  0.37724  0.24236  0.57680  1.0000
  C   C19       1.0  0.35219  0.16947  0.21922  1.0000
  H   H15       1.0  0.39119  0.15590  0.16961  1.0000
  C   C20       1.0  0.26004  0.14816  0.60899  1.0000
  H   H16       1.0  0.22591  0.12361  0.55914  1.0000
  N   N5        1.0  0.76041  0.58999  0.99357  1.0000
  N   N6        1.0  0.74388  0.26750  0.02165  1.0000
  C   C21       1.0  0.75279  0.39476  0.02313  1.0000
  C   C22       1.0  0.80443  0.35765  0.03131  1.0000
  H   H17       1.0  0.84868  0.37755  0.03876  1.0000
  C   C23       1.0  0.75632  0.46281  0.01721  1.0000
  C   C24       1.0  0.80219  0.49131  0.95421  1.0000
  H   H18       1.0  0.83678  0.46511  0.91153  1.0000
  C   C25       1.0  0.69703  0.36573  0.01486  1.0000
  H   H19       1.0  0.65597  0.39151  0.00589  1.0000
  C   C26       1.0  0.71663  0.56383  0.06008  1.0000
  H   H20       1.0  0.68513  0.59170  0.10742  1.0000
  C   C27       1.0  0.80355  0.55435  0.94428  1.0000
  H   H21       1.0  0.84050  0.57507  0.89824  1.0000
  C   C28       1.0  0.69374  0.30270  0.01357  1.0000
  H   H22       1.0  0.65024  0.28141  0.00432  1.0000
  C   C29       1.0  0.79902  0.29403  0.03078  1.0000
  H   H23       1.0  0.83886  0.26673  0.03675  1.0000
  C   C30       1.0  0.71311  0.50039  0.07094  1.0000
  H   H24       1.0  0.67765  0.48101  0.12360  1.0000
  N   N7        1.0  0.80087  0.67657  0.80359  1.0000
  C   C31       1.0  0.80358  0.68255  0.41390  1.0000
  N   N8        1.0  0.80029  0.68422  0.16012  1.0000
  C   C32       1.0  0.84360  0.70984  0.74712  1.0000
  H   H25       1.0  0.87489  0.73671  0.79919  1.0000
  C   C33       1.0  0.80386  0.67964  0.54932  1.0000
  C   C34       1.0  0.85426  0.66754  0.34616  1.0000
  H   H26       1.0  0.89413  0.65237  0.39161  1.0000
  C   C35       1.0  0.75124  0.69823  0.35008  1.0000
  H   H27       1.0  0.71070  0.70971  0.39708  1.0000
  C   C36       1.0  0.75068  0.69895  0.22444  1.0000
  H   H28       1.0  0.70927  0.70987  0.17753  1.0000
  C   C37       1.0  0.75914  0.64618  0.73549  1.0000
  H   H29       1.0  0.72319  0.62238  0.77866  1.0000
  C   C38       1.0  0.84544  0.71193  0.62033  1.0000
  H   H30       1.0  0.87707  0.74091  0.57709  1.0000
  C   C39       1.0  0.85200  0.66845  0.21927  1.0000
  H   H31       1.0  0.89083  0.65483  0.16919  1.0000
  C   C40       1.0  0.76004  0.64676  0.60976  1.0000
  H   H32       1.0  0.72587  0.62222  0.56001  1.0000
  C   C41       1.0  0.80504  0.86606  0.98704  1.0000
  H   H33       1.0  0.84606  0.89160  0.99961  1.0000
  C   C42       1.0  0.78602  0.06482  0.93964  1.0000
  H   H34       1.0  0.81808  0.09304  0.89458  1.0000
  C   C43       1.0  0.69750  0.05462  0.05050  1.0000
  H   H35       1.0  0.65979  0.07503  0.09465  1.0000
  C   C44       1.0  0.80777  0.80295  0.98861  1.0000
  H   H36       1.0  0.85089  0.78125  0.00109  1.0000
  C   C45       1.0  0.70286  0.79523  0.96132  1.0000
  H   H37       1.0  0.66293  0.76840  0.95042  1.0000
  C   C46       1.0  0.79004  0.00135  0.92879  1.0000
  H   H38       1.0  0.82626  0.98212  0.87800  1.0000
  N   N9        1.0  0.74103  0.09056  0.00351  1.0000
  N   N10       1.0  0.75749  0.76817  0.97603  1.0000
  C   C47       1.0  0.74970  0.89552  0.97375  1.0000
  C   C48       1.0  0.69801  0.85885  0.96059  1.0000
  H   H39       1.0  0.65411  0.87911  0.94899  1.0000
  C   C49       1.0  0.74625  0.96353  0.98003  1.0000
  C   C50       1.0  0.69947  0.99167  0.04084  1.0000
  H   H40       1.0  0.66456  0.96523  0.08190  1.0000
  C   C51       1.0  0.64647  0.16886  0.77875  1.0000
  H   H41       1.0  0.60774  0.15539  0.82926  1.0000
  C   C52       1.0  0.73727  0.14585  0.38774  1.0000
  H   H42       1.0  0.77106  0.12095  0.43782  1.0000
  N   N11       1.0  0.69727  0.17604  0.19332  1.0000
  C   C53       1.0  0.69436  0.18265  0.58335  1.0000
  N   N12       1.0  0.69845  0.18423  0.83737  1.0000
  C   C54       1.0  0.65461  0.20958  0.24943  1.0000
  H   H43       1.0  0.62365  0.23673  0.19719  1.0000
  C   C55       1.0  0.69381  0.17934  0.44782  1.0000
  C   C56       1.0  0.64383  0.16803  0.65181  1.0000
  H   H44       1.0  0.60376  0.15318  0.60683  1.0000
  C   C57       1.0  0.74699  0.19794  0.64665  1.0000
  H   H45       1.0  0.78749  0.20913  0.59919  1.0000
  C   C58       1.0  0.74795  0.19860  0.77234  1.0000
  H   H46       1.0  0.78961  0.20912  0.81872  1.0000
  C   C59       1.0  0.73838  0.14510  0.26204  1.0000
  H   H47       1.0  0.77418  0.12082  0.21950  1.0000
  C   C60       1.0  0.65244  0.21169  0.37624  1.0000
  H   H48       1.0  0.62072  0.24076  0.41885  1.0000
  N   N13       1.0  0.24116  0.59078  0.00366  1.0000
  N   N14       1.0  0.25811  0.26841  0.97559  1.0000
  C   C61       1.0  0.25002  0.39575  0.97353  1.0000
  C   C62       1.0  0.19845  0.35896  0.95951  1.0000
  H   H49       1.0  0.15455  0.37915  0.94737  1.0000
  C   C63       1.0  0.24645  0.46376  0.97982  1.0000
  C   C64       1.0  0.19967  0.49182  0.04080  1.0000
  H   H50       1.0  0.16483  0.46530  0.08189  1.0000
  C   C65       1.0  0.30538  0.36642  0.98761  1.0000
  H   H51       1.0  0.34629  0.39207  0.00080  1.0000
  C   C66       1.0  0.28613  0.56512  0.93962  1.0000
  H   H52       1.0  0.31813  0.59342  0.89459  1.0000
  C   C67       1.0  0.19767  0.55478  0.05064  1.0000
  H   H53       1.0  0.15998  0.57514  0.09493  1.0000
  C   C68       1.0  0.30826  0.30331  0.98911  1.0000
  H   H54       1.0  0.35140  0.28172  0.00218  1.0000
  C   C69       1.0  0.20347  0.29534  0.95999  1.0000
  H   H55       1.0  0.16367  0.26836  0.94820  1.0000
  C   C70       1.0  0.29017  0.50166  0.92855  1.0000
  H   H56       1.0  0.32638  0.48251  0.87761  1.0000
  N   N15       1.0  0.19733  0.67647  0.19347  1.0000
  C   C71       1.0  0.19442  0.68319  0.58347  1.0000
  N   N16       1.0  0.19870  0.68450  0.83747  1.0000
  C   C72       1.0  0.15493  0.71039  0.24954  1.0000
  H   H57       1.0  0.12421  0.73778  0.19726  1.0000
  C   C73       1.0  0.19382  0.67989  0.44797  1.0000
  C   C74       1.0  0.14401  0.66825  0.65200  1.0000
  H   H58       1.0  0.10394  0.65334  0.60708  1.0000
  C   C75       1.0  0.24705  0.69862  0.64666  1.0000
  H   H59       1.0  0.28747  0.70999  0.59911  1.0000
  C   C76       1.0  0.24810  0.69915  0.77235  1.0000
  H   H60       1.0  0.28976  0.70981  0.81861  1.0000
  C   C77       1.0  0.23817  0.64523  0.26227  1.0000
  H   H61       1.0  0.27381  0.62066  0.21983  1.0000
  C   C78       1.0  0.15270  0.71255  0.37637  1.0000
  H   H62       1.0  0.12111  0.74185  0.41893  1.0000
  C   C79       1.0  0.14680  0.66883  0.77893  1.0000
  H   H63       1.0  0.10824  0.65492  0.82949  1.0000
  C   C80       1.0  0.23703  0.64604  0.38796  1.0000
  H   H64       1.0  0.27064  0.62091  0.43810  1.0000
  N   N17       1.0  0.41007  0.35691  0.48103  1.0000
  N   N18       1.0  0.09019  0.35513  0.49906  1.0000
  C   C81       1.0  0.28389  0.35571  0.48747  1.0000
  C   C82       1.0  0.21638  0.35497  0.49108  1.0000
  C   C83       1.0  0.31469  0.33998  0.38303  1.0000
  H   H65       1.0  0.29025  0.32625  0.30328  1.0000
  C   C84       1.0  0.18612  0.33582  0.59379  1.0000
  H   H66       1.0  0.21086  0.32016  0.67185  1.0000
  C   C85       1.0  0.11816  0.37397  0.39840  1.0000
  H   H67       1.0  0.09154  0.38934  0.32274  1.0000
  C   C86       1.0  0.38150  0.37267  0.58326  1.0000
  H   H68       1.0  0.40771  0.38508  0.66164  1.0000
  C   C87       1.0  0.18119  0.37392  0.39231  1.0000
  H   H69       1.0  0.20219  0.38982  0.31173  1.0000
  C   C88       1.0  0.12309  0.33617  0.59575  1.0000
  H   H70       1.0  0.10028  0.32159  0.67530  1.0000
  C   C89       1.0  0.31856  0.37209  0.58862  1.0000
  H   H71       1.0  0.29730  0.38506  0.67105  1.0000
  C   C90       1.0  0.37782  0.34024  0.38211  1.0000
  H   H72       1.0  0.40104  0.32686  0.30230  1.0000
  C   C91       1.0  0.50793  0.17190  0.40053  1.0000
  H   H73       1.0  0.51617  0.14819  0.31794  1.0000
  C   C92       1.0  0.50619  0.23496  0.39914  1.0000
  H   H74       1.0  0.51242  0.25877  0.31596  1.0000
  C   C93       1.0  0.52133  0.04018  0.60763  1.0000
  H   H75       1.0  0.54049  0.06349  0.68417  1.0000
  C   C94       1.0  0.52145  0.97691  0.60667  1.0000
  H   H76       1.0  0.53982  0.95242  0.68232  1.0000
  N   N19       1.0  0.49895  0.94590  0.51097  1.0000
  N   N20       1.0  0.49950  0.26690  0.50182  1.0000
  C   C95       1.0  0.49794  0.07255  0.50933  1.0000
  C   C96       1.0  0.48961  0.17461  0.61202  1.0000
  H   H77       1.0  0.48119  0.15271  0.69638  1.0000
  C   C97       1.0  0.49213  0.23799  0.60782  1.0000
  C   C98       1.0  0.49824  0.14034  0.50745  1.0000
  H   H78       1.0  0.48595  0.26399  0.68840  1.0000
  C   C99       1.0  0.47496  0.03911  0.41169  1.0000
  H   H79       1.0  0.45582  0.06146  0.33413  1.0000
  C   C100      1.0  0.47586  0.97585  0.41454  1.0000
  H   H80       1.0  0.45802  0.95061  0.33925  1.0000
  C   C101      1.0  0.97189  0.17257  0.60192  1.0000
  H   H81       1.0  0.94962  0.14884  0.67309  1.0000
  C   C102      1.0  0.02076  0.97640  0.60114  1.0000
  H   H82       1.0  0.03847  0.95058  0.67566  1.0000
  C   C103      1.0  0.97264  0.23586  0.60171  1.0000
  H   H83       1.0  0.95107  0.26037  0.67255  1.0000
  C   C104      1.0  0.02127  0.03965  0.60582  1.0000
  H   H84       1.0  0.03962  0.06213  0.68397  1.0000
  C   C105      1.0  0.02801  0.17333  0.41967  1.0000
  H   H85       1.0  0.05022  0.15029  0.34741  1.0000
  C   C106      1.0  0.97625  0.97886  0.40777  1.0000
  H   H86       1.0  0.95844  0.95494  0.33079  1.0000
  N   N21       1.0  0.00018  0.26671  0.51264  1.0000
  N   N22       1.0  0.99836  0.94721  0.50306  1.0000
  C   C107      1.0  0.99934  0.07329  0.50815  1.0000
  C   C108      1.0  0.99996  0.14050  0.51024  1.0000
  C   C109      1.0  0.02722  0.23652  0.42212  1.0000
  H   H87       1.0  0.04831  0.26149  0.35120  1.0000
  C   C110      1.0  0.97672  0.04205  0.40817  1.0000
  H   H88       1.0  0.95887  0.06636  0.33173  1.0000
  N   N23       1.0  0.90957  0.85679  0.49739  1.0000
  N   N24       1.0  0.58967  0.85514  0.50948  1.0000
  C   C111      1.0  0.78344  0.85570  0.50286  1.0000
  C   C112      1.0  0.71592  0.85537  0.50523  1.0000
  C   C113      1.0  0.81437  0.84024  0.39852  1.0000
  H   H89       1.0  0.79009  0.82695  0.31826  1.0000
  C   C114      1.0  0.68491  0.83547  0.60659  1.0000
  H   H90       1.0  0.70922  0.81922  0.68462  1.0000
  C   C115      1.0  0.61846  0.87501  0.41047  1.0000
  H   H91       1.0  0.59240  0.89072  0.33430  1.0000
  C   C116      1.0  0.88095  0.87241  0.59956  1.0000
  H   H92       1.0  0.90709  0.88506  0.67789  1.0000
  C   C117      1.0  0.68146  0.87518  0.40628  1.0000
  H   H93       1.0  0.70298  0.89170  0.32668  1.0000
  C   C118      1.0  0.62177  0.83553  0.60662  1.0000
  H   H94       1.0  0.59836  0.82004  0.68479  1.0000
  C   C119      1.0  0.81793  0.87180  0.60447  1.0000
  H   H95       1.0  0.79646  0.88476  0.68665  1.0000
  C   C120      1.0  0.87741  0.84057  0.39802  1.0000
  H   H96       1.0  0.90076  0.82791  0.31786  1.0000
  C   C121      1.0  0.97719  0.53959  0.40925  1.0000
  H   H97       1.0  0.95833  0.56159  0.33091  1.0000
  C   C122      1.0  0.97807  0.47639  0.41333  1.0000
  H   H98       1.0  0.96066  0.45080  0.33813  1.0000
  C   C123      1.0  0.00795  0.67340  0.39797  1.0000
  H   H99       1.0  0.01636  0.65009  0.31502  1.0000
  C   C124      1.0  0.00585  0.73656  0.39772  1.0000
  H   H100      1.0  0.01200  0.76091  0.31511  1.0000
  C   C125      1.0  0.02301  0.54152  0.60569  1.0000
  H   H101      1.0  0.04197  0.56513  0.68189  1.0000
  C   C126      1.0  0.02316  0.47822  0.60590  1.0000
  H   H102      1.0  0.04158  0.45407  0.68191  1.0000
  N   N25       1.0  0.00050  0.44685  0.51084  1.0000
  N   N26       1.0  0.99871  0.76779  0.50112  1.0000
  C   C127      1.0  0.99958  0.57344  0.50659  1.0000
  C   C128      1.0  0.99882  0.64124  0.50460  1.0000
  C   C129      1.0  0.98937  0.67491  0.60942  1.0000
  H   H103      1.0  0.98075  0.65261  0.69336  1.0000
  C   C130      1.0  0.99125  0.73818  0.60629  1.0000
  H   H104      1.0  0.98447  0.76368  0.68726  1.0000
  C   C131      1.0  0.52822  0.73528  0.42250  1.0000
  H   H105      1.0  0.54998  0.76022  0.35238  1.0000
  C   C132      1.0  0.47860  0.54084  0.40843  1.0000
  H   H106      1.0  0.46175  0.56521  0.33114  1.0000
  C   C133      1.0  0.47146  0.67143  0.60084  1.0000
  H   H107      1.0  0.44833  0.64779  0.67111  1.0000
  C   C134      1.0  0.52047  0.47458  0.60277  1.0000
  H   H108      1.0  0.53779  0.44860  0.67745  1.0000
  C   C135      1.0  0.47186  0.73471  0.59982  1.0000
  H   H109      1.0  0.44945  0.75926  0.66960  1.0000
  C   C136      1.0  0.52097  0.53799  0.60780  1.0000
  H   H110      1.0  0.53865  0.56039  0.68662  1.0000
  N   N27       1.0  0.50000  0.76556  0.51150  1.0000
  N   N28       1.0  0.49909  0.44568  0.50345  1.0000
  C   C137      1.0  0.50073  0.63923  0.51099  1.0000
  C   C138      1.0  0.50017  0.57192  0.50934  1.0000
  C   C139      1.0  0.52936  0.67202  0.42085  1.0000
  H   H111      1.0  0.55215  0.64893  0.34949  1.0000
  C   C140      1.0  0.47811  0.47774  0.40766  1.0000
  H   H112      1.0  0.46147  0.45408  0.32944  1.0000
  N   N29       1.0  0.59002  0.35709  0.47899  1.0000
  N   N30       1.0  0.91052  0.35564  0.49518  1.0000
  C   C141      1.0  0.71643  0.35560  0.48318  1.0000
  C   C142      1.0  0.78411  0.35528  0.48668  1.0000
  C   C143      1.0  0.68339  0.33987  0.58471  1.0000
  H   H113      1.0  0.70589  0.32598  0.66655  1.0000
  C   C144      1.0  0.81789  0.33719  0.38738  1.0000
  H   H114      1.0  0.79563  0.32195  0.30622  1.0000
  C   C145      1.0  0.87897  0.37324  0.59238  1.0000
  H   H115      1.0  0.90292  0.38733  0.67246  1.0000
  C   C146      1.0  0.62058  0.37323  0.37946  1.0000
  H   H116      1.0  0.59595  0.38647  0.29968  1.0000
  C   C147      1.0  0.81600  0.37324  0.59024  1.0000
  H   H117      1.0  0.79256  0.38811  0.66891  1.0000
  C   C148      1.0  0.88116  0.33754  0.39360  1.0000
  H   H118      1.0  0.90671  0.32319  0.31733  1.0000
  C   C149      1.0  0.68382  0.37242  0.37947  1.0000
  H   H119      1.0  0.70696  0.38583  0.29951  1.0000
  C   C150      1.0  0.62041  0.34065  0.58047  1.0000
  H   H120      1.0  0.59559  0.32784  0.65876  1.0000
  N   N31       1.0  0.08934  0.85711  0.49377  1.0000
  N   N32       1.0  0.40953  0.85420  0.50478  1.0000
  C   C151      1.0  0.21563  0.85541  0.49678  1.0000
  C   C152      1.0  0.28322  0.85467  0.49921  1.0000
  C   C153      1.0  0.18284  0.83991  0.59876  1.0000
  H   H121      1.0  0.20565  0.82634  0.68051  1.0000
  C   C154      1.0  0.31616  0.83531  0.39992  1.0000
  H   H122      1.0  0.29334  0.81968  0.31961  1.0000
  C   C155      1.0  0.37882  0.87315  0.60203  1.0000
  H   H123      1.0  0.40341  0.88821  0.68062  1.0000
  C   C156      1.0  0.11974  0.87317  0.39400  1.0000
  H   H124      1.0  0.09494  0.88647  0.31444  1.0000
  C   C157      1.0  0.31579  0.87349  0.60143  1.0000
  H   H125      1.0  0.29284  0.88944  0.67981  1.0000
  C   C158      1.0  0.37934  0.83520  0.40473  1.0000
  H   H126      1.0  0.40430  0.82020  0.32817  1.0000
  C   C159      1.0  0.18289  0.87217  0.39325  1.0000
  H   H127      1.0  0.20584  0.88541  0.31289  1.0000
  C   C160      1.0  0.11982  0.84061  0.59507  1.0000
  H   H128      1.0  0.09515  0.82803  0.67364  1.0000
  S   S1        1.0  0.07367  0.16372  0.91815  1.0000
  S   S2        1.0  0.92872  0.16420  0.09219  1.0000
  O   O1        1.0  0.14434  0.15882  0.94756  1.0000
  C   C161      1.0  0.03421  0.21709  0.01408  1.0000
  H   H129      1.0  0.04465  0.20666  0.10920  1.0000
  C   C162      1.0  0.96647  0.21571  0.98963  1.0000
  H   H130      1.0  0.05170  0.26288  0.99512  1.0000
  H   H131      1.0  0.95633  0.20211  0.89601  1.0000
  O   O2        1.0  0.07189  0.18071  0.77831  1.0000
  O   O3        1.0  0.05065  0.09489  0.92276  1.0000
  H   H132      1.0  0.94775  0.26150  0.00315  1.0000
  O   O4        1.0  0.95247  0.09558  0.09207  1.0000
  O   O5        1.0  0.93273  0.18420  0.23036  1.0000
  O   O6        1.0  0.85767  0.15793  0.06786  1.0000
  O   O7        1.0  0.43405  0.68324  0.22989  1.0000
  O   O8        1.0  0.45233  0.59514  0.08957  1.0000
  S   S3        1.0  0.57403  0.66370  0.91647  1.0000
  S   S4        1.0  0.42916  0.66394  0.09139  1.0000
  O   O9        1.0  0.64486  0.65920  0.94447  1.0000
  C   C163      1.0  0.53473  0.71672  0.01342  1.0000
  H   H133      1.0  0.54523  0.70582  0.10831  1.0000
  C   C164      1.0  0.46696  0.71560  0.98915  1.0000
  H   H134      1.0  0.55228  0.76257  0.99528  1.0000
  H   H135      1.0  0.44841  0.76142  0.00320  1.0000
  O   O10       1.0  0.57145  0.68076  0.77668  1.0000
  O   O11       1.0  0.55148  0.59472  0.92143  1.0000
  H   H136      1.0  0.45669  0.70228  0.89541  1.0000
  O   O12       1.0  0.35795  0.65837  0.06834  1.0000
  Cu  Cu1       1.0  0.28076  0.17985  0.98146  1.0000
  Cu  Cu2       1.0  0.71962  0.17953  0.01518  1.0000
  Cu  Cu3       1.0  0.78007  0.67960  0.98214  1.0000
  Cu  Cu4       1.0  0.50003  0.35626  0.48295  1.0000
  Cu  Cu5       1.0  0.21983  0.67979  0.01532  1.0000
  Cu  Cu6       1.0  0.99941  0.85755  0.49352  1.0000
  Cu  Cu7       1.0  0.00037  0.35685  0.51188  1.0000
  Cu  Cu8       1.0  0.49952  0.85586  0.51143  1.0000
