data_image0
_chemical_formula_structural       CONCHOCOCHOCOCHOC2HOC3ONCHOCOCHOCOC2ONCHOCOCHOCOCHOC2OCOCHOC3ONCHOCOCHCONCHOCOCHOCOCHOC3OCHOCOCHOC3ONCHOCONCHOCOCHOCOCHOC2NCHOCOCHOCOCHOC3OC3ONCHOCOCHOCOCHOCONCHOCOCHOCOCHOC2OCHOC3ONCHOCOCHOC2ONCHOCOCHOCOCHOC3HOCOCHOC3ONCHOCOCONCHOCOCHOCOCHOC2HOCOCHOCOCHOC3ONC2ONCHOCOCHOCOCHOC3ONCHOCOCHOCOCHOC2HOC3ONCHOCOCHOCOC2ONCHOCOCHOCOCHOC2OCOCHOC3ONCHOCOCHCONCHOCOCHOCOCHOC3OCHOCOCHOC3ONCHOCONCHOCOCHOCOCHOC2NCHOCOCHOCOCHOC3OC3ONCHOCOCHOCOCHOCONCHOCOCHOCOCHOC2OCHOC3ONCHOCOCHOC2ONCHOCOCHOCOCHOC3HOCOCHOC3ONCHOCOCONCHOCOCHOCOCHOC2HOCOCHOCOCHOC3ONC2ONCHOCOCHOCOCHOC3ONCHOCOCHOCOCHOC2HOC3ONCHOCOCHOCOC2ONCHOCOCHOCOCHOC2OCOCHOC3ONCHOCOCHCONCHOCOCHOCOCHOC3OCHOCOCHOC3ONCHOCONCHOCOCHOCOCHOC2NCHOCOCHOCOCHOC3OC3ONCHOCOCHOCOCHOCONCHOCOCHOCOCHOC2OCHOC3ONCHOCOCHOC2ONCHOCOCHOCOCHOC3HOCOCHOC3ONCHOCOCONCHOCOCHOCOCHOC2HOCOCHOCOCHOC3ONC2ONCHOCOCHOCOCHOC2Gd24
_chemical_formula_sum              "C384 O288 N48 H144 Gd24"
_cell_length_a       24.964
_cell_length_b       24.964
_cell_length_c       24.964
_cell_angle_alpha    90
_cell_angle_beta     90
_cell_angle_gamma    90

_space_group_name_H-M_alt    "P 1"
_space_group_IT_number       1

loop_
  _space_group_symop_operation_xyz
  'x, y, z'

loop_
  _atom_site_type_symbol
  _atom_site_label
  _atom_site_symmetry_multiplicity
  _atom_site_fract_x
  _atom_site_fract_y
  _atom_site_fract_z
  _atom_site_occupancy
  C   C1        1.0  0.39540  0.36780  0.12130  1.0000
  O   O1        1.0  0.42359  0.29965  0.18085  1.0000
  N   N1        1.0  0.40360  0.47720  0.01960  1.0000
  C   C2        1.0  0.35680  0.38780  0.15580  1.0000
  H   H1        1.0  0.34620  0.36780  0.18640  1.0000
  O   O2        1.0  0.43754  0.28811  0.09295  1.0000
  C   C3        1.0  0.33330  0.43820  0.14510  1.0000
  O   O3        1.0  0.27814  0.43336  0.22351  1.0000
  C   C4        1.0  0.34890  0.46680  0.10030  1.0000
  H   H2        1.0  0.33340  0.50080  0.09280  1.0000
  O   O4        1.0  0.27115  0.50470  0.17130  1.0000
  C   C5        1.0  0.38710  0.44530  0.06670  1.0000
  O   O5        1.0  0.38590  0.52180  0.01550  1.0000
  C   C6        1.0  0.41070  0.39630  0.07540  1.0000
  H   H3        1.0  0.43640  0.38220  0.05110  1.0000
  O   O6        1.0  0.43460  0.45620  0.98770  1.0000
  C   C7        1.0  0.42000  0.31330  0.13250  1.0000
  C   C8        1.0  0.29140  0.45930  0.18180  1.0000
  H   H4        1.0  0.93640  0.88220  0.55110  1.0000
  O   O7        1.0  0.93460  0.95620  0.48770  1.0000
  C   C9        1.0  0.92000  0.81330  0.63250  1.0000
  C   C10       1.0  0.79140  0.95930  0.68180  1.0000
  C   C11       1.0  0.89540  0.86780  0.62130  1.0000
  O   O8        1.0  0.92359  0.79965  0.68085  1.0000
  N   N2        1.0  0.90360  0.97720  0.51960  1.0000
  C   C12       1.0  0.85680  0.88780  0.65580  1.0000
  H   H5        1.0  0.84620  0.86780  0.68640  1.0000
  O   O9        1.0  0.93754  0.78811  0.59295  1.0000
  C   C13       1.0  0.83330  0.93820  0.64510  1.0000
  O   O10       1.0  0.77814  0.93336  0.72351  1.0000
  C   C14       1.0  0.84890  0.96680  0.60030  1.0000
  H   H6        1.0  0.83340  0.00080  0.59280  1.0000
  O   O11       1.0  0.77115  0.00470  0.67130  1.0000
  C   C15       1.0  0.88710  0.94530  0.56670  1.0000
  O   O12       1.0  0.88590  0.02180  0.51550  1.0000
  C   C16       1.0  0.91070  0.89630  0.57540  1.0000
  C   C17       1.0  0.10460  0.63220  0.62130  1.0000
  O   O13       1.0  0.07641  0.70035  0.68085  1.0000
  N   N3        1.0  0.09640  0.52280  0.51960  1.0000
  C   C18       1.0  0.14320  0.61220  0.65580  1.0000
  H   H7        1.0  0.15380  0.63220  0.68640  1.0000
  O   O14       1.0  0.06246  0.71189  0.59295  1.0000
  C   C19       1.0  0.16670  0.56180  0.64510  1.0000
  O   O15       1.0  0.22186  0.56664  0.72351  1.0000
  C   C20       1.0  0.15110  0.53320  0.60030  1.0000
  H   H8        1.0  0.16660  0.49920  0.59280  1.0000
  O   O16       1.0  0.22885  0.49530  0.67130  1.0000
  C   C21       1.0  0.11290  0.55470  0.56670  1.0000
  O   O17       1.0  0.11410  0.47820  0.51550  1.0000
  C   C22       1.0  0.08930  0.60370  0.57540  1.0000
  H   H9        1.0  0.06360  0.61780  0.55110  1.0000
  O   O18       1.0  0.06540  0.54380  0.48770  1.0000
  C   C23       1.0  0.08000  0.68670  0.63250  1.0000
  C   C24       1.0  0.20860  0.54070  0.68180  1.0000
  O   O19       1.0  0.72885  0.99530  0.17130  1.0000
  C   C25       1.0  0.61290  0.05470  0.06670  1.0000
  O   O20       1.0  0.61410  0.97820  0.01550  1.0000
  C   C26       1.0  0.58930  0.10370  0.07540  1.0000
  H   H10       1.0  0.56360  0.11780  0.05110  1.0000
  O   O21       1.0  0.56540  0.04380  0.98770  1.0000
  C   C27       1.0  0.58000  0.18670  0.13250  1.0000
  C   C28       1.0  0.70860  0.04070  0.18180  1.0000
  C   C29       1.0  0.60460  0.13220  0.12130  1.0000
  O   O22       1.0  0.57641  0.20035  0.18085  1.0000
  N   N4        1.0  0.59640  0.02280  0.01960  1.0000
  C   C30       1.0  0.64320  0.11220  0.15580  1.0000
  H   H11       1.0  0.65380  0.13220  0.18640  1.0000
  O   O23       1.0  0.56246  0.21189  0.09295  1.0000
  C   C31       1.0  0.66670  0.06180  0.14510  1.0000
  O   O24       1.0  0.72186  0.06664  0.22351  1.0000
  C   C32       1.0  0.65110  0.03320  0.10030  1.0000
  H   H12       1.0  0.66660  0.99920  0.09280  1.0000
  C   C33       1.0  0.60460  0.86780  0.37870  1.0000
  O   O25       1.0  0.57641  0.79965  0.31915  1.0000
  N   N5        1.0  0.59640  0.97720  0.48040  1.0000
  C   C34       1.0  0.64320  0.88780  0.34420  1.0000
  H   H13       1.0  0.65380  0.86780  0.31360  1.0000
  O   O26       1.0  0.56246  0.78811  0.40705  1.0000
  C   C35       1.0  0.66670  0.93820  0.35490  1.0000
  O   O27       1.0  0.72186  0.93336  0.27649  1.0000
  C   C36       1.0  0.65110  0.96680  0.39970  1.0000
  H   H14       1.0  0.66660  0.00080  0.40720  1.0000
  O   O28       1.0  0.72885  0.00470  0.32870  1.0000
  C   C37       1.0  0.61290  0.94530  0.43330  1.0000
  O   O29       1.0  0.61410  0.02180  0.48450  1.0000
  C   C38       1.0  0.58930  0.89630  0.42460  1.0000
  H   H15       1.0  0.56360  0.88220  0.44890  1.0000
  O   O30       1.0  0.56540  0.95620  0.51230  1.0000
  C   C39       1.0  0.58000  0.81330  0.36750  1.0000
  C   C40       1.0  0.70860  0.95930  0.31820  1.0000
  C   C41       1.0  0.16670  0.43820  0.85490  1.0000
  O   O31       1.0  0.22186  0.43336  0.77649  1.0000
  C   C42       1.0  0.15110  0.46680  0.89970  1.0000
  H   H16       1.0  0.16660  0.50080  0.90720  1.0000
  O   O32       1.0  0.22885  0.50470  0.82870  1.0000
  C   C43       1.0  0.11290  0.44530  0.93330  1.0000
  O   O33       1.0  0.11410  0.52180  0.98450  1.0000
  C   C44       1.0  0.08930  0.39630  0.92460  1.0000
  H   H17       1.0  0.06360  0.38220  0.94890  1.0000
  O   O34       1.0  0.06540  0.45620  0.01230  1.0000
  C   C45       1.0  0.08000  0.31330  0.86750  1.0000
  C   C46       1.0  0.20860  0.45930  0.81820  1.0000
  C   C47       1.0  0.10460  0.36780  0.87870  1.0000
  O   O35       1.0  0.07641  0.29965  0.81915  1.0000
  N   N6        1.0  0.09640  0.47720  0.98040  1.0000
  C   C48       1.0  0.14320  0.38780  0.84420  1.0000
  H   H18       1.0  0.15380  0.36780  0.81360  1.0000
  O   O36       1.0  0.06246  0.28811  0.90705  1.0000
  C   C49       1.0  0.89540  0.13220  0.87870  1.0000
  O   O37       1.0  0.92359  0.20035  0.81915  1.0000
  N   N7        1.0  0.90360  0.02280  0.98040  1.0000
  C   C50       1.0  0.85680  0.11220  0.84420  1.0000
  H   H19       1.0  0.84620  0.13220  0.81360  1.0000
  O   O38       1.0  0.93754  0.21189  0.90705  1.0000
  C   C51       1.0  0.83330  0.06180  0.85490  1.0000
  O   O39       1.0  0.77814  0.06664  0.77649  1.0000
  C   C52       1.0  0.84890  0.03320  0.89970  1.0000
  H   H20       1.0  0.83340  0.99920  0.90720  1.0000
  O   O40       1.0  0.77115  0.99530  0.82870  1.0000
  C   C53       1.0  0.88710  0.05470  0.93330  1.0000
  O   O41       1.0  0.88590  0.97820  0.98450  1.0000
  C   C54       1.0  0.91070  0.10370  0.92460  1.0000
  H   H21       1.0  0.93640  0.11780  0.94890  1.0000
  O   O42       1.0  0.93460  0.04380  0.01230  1.0000
  C   C55       1.0  0.92000  0.18670  0.86750  1.0000
  C   C56       1.0  0.79140  0.04070  0.81820  1.0000
  N   N8        1.0  0.40360  0.52280  0.48040  1.0000
  C   C57       1.0  0.35680  0.61220  0.34420  1.0000
  H   H22       1.0  0.34620  0.63220  0.31360  1.0000
  O   O43       1.0  0.43754  0.71189  0.40705  1.0000
  C   C58       1.0  0.33330  0.56180  0.35490  1.0000
  O   O44       1.0  0.27814  0.56664  0.27649  1.0000
  C   C59       1.0  0.34890  0.53320  0.39970  1.0000
  H   H23       1.0  0.33340  0.49920  0.40720  1.0000
  O   O45       1.0  0.27115  0.49530  0.32870  1.0000
  C   C60       1.0  0.38710  0.55470  0.43330  1.0000
  O   O46       1.0  0.38590  0.47820  0.48450  1.0000
  C   C61       1.0  0.41070  0.60370  0.42460  1.0000
  H   H24       1.0  0.43640  0.61780  0.44890  1.0000
  O   O47       1.0  0.43460  0.54380  0.51230  1.0000
  C   C62       1.0  0.42000  0.68670  0.36750  1.0000
  C   C63       1.0  0.29140  0.54070  0.31820  1.0000
  C   C64       1.0  0.39540  0.63220  0.37870  1.0000
  O   O48       1.0  0.42359  0.70035  0.31915  1.0000
  C   C65       1.0  0.13250  0.42000  0.31330  1.0000
  C   C66       1.0  0.18180  0.29140  0.45930  1.0000
  C   C67       1.0  0.12130  0.39540  0.36780  1.0000
  O   O49       1.0  0.18085  0.42359  0.29965  1.0000
  N   N9        1.0  0.01960  0.40360  0.47720  1.0000
  C   C68       1.0  0.15580  0.35680  0.38780  1.0000
  H   H25       1.0  0.18640  0.34620  0.36780  1.0000
  O   O50       1.0  0.09295  0.43754  0.28811  1.0000
  C   C69       1.0  0.14510  0.33330  0.43820  1.0000
  O   O51       1.0  0.22351  0.27814  0.43336  1.0000
  C   C70       1.0  0.10030  0.34890  0.46680  1.0000
  H   H26       1.0  0.09280  0.33340  0.50080  1.0000
  O   O52       1.0  0.17130  0.27115  0.50470  1.0000
  C   C71       1.0  0.06670  0.38710  0.44530  1.0000
  O   O53       1.0  0.01550  0.38590  0.52180  1.0000
  C   C72       1.0  0.07540  0.41070  0.39630  1.0000
  H   H27       1.0  0.05110  0.43640  0.38220  1.0000
  O   O54       1.0  0.98770  0.43460  0.45620  1.0000
  C   C73       1.0  0.62130  0.89540  0.86780  1.0000
  O   O55       1.0  0.68085  0.92359  0.79965  1.0000
  N   N10       1.0  0.51960  0.90360  0.97720  1.0000
  C   C74       1.0  0.65580  0.85680  0.88780  1.0000
  H   H28       1.0  0.68640  0.84620  0.86780  1.0000
  O   O56       1.0  0.59295  0.93754  0.78811  1.0000
  C   C75       1.0  0.64510  0.83330  0.93820  1.0000
  O   O57       1.0  0.72351  0.77814  0.93336  1.0000
  C   C76       1.0  0.60030  0.84890  0.96680  1.0000
  H   H29       1.0  0.59280  0.83340  0.00080  1.0000
  O   O58       1.0  0.67130  0.77115  0.00470  1.0000
  C   C77       1.0  0.56670  0.88710  0.94530  1.0000
  O   O59       1.0  0.51550  0.88590  0.02180  1.0000
  C   C78       1.0  0.57540  0.91070  0.89630  1.0000
  H   H30       1.0  0.55110  0.93640  0.88220  1.0000
  O   O60       1.0  0.48770  0.93460  0.95620  1.0000
  C   C79       1.0  0.63250  0.92000  0.81330  1.0000
  C   C80       1.0  0.68180  0.79140  0.95930  1.0000
  O   O61       1.0  0.51550  0.11410  0.47820  1.0000
  C   C81       1.0  0.57540  0.08930  0.60370  1.0000
  H   H31       1.0  0.55110  0.06360  0.61780  1.0000
  O   O62       1.0  0.48770  0.06540  0.54380  1.0000
  C   C82       1.0  0.63250  0.08000  0.68670  1.0000
  C   C83       1.0  0.68180  0.20860  0.54070  1.0000
  C   C84       1.0  0.62130  0.10460  0.63220  1.0000
  O   O63       1.0  0.68085  0.07641  0.70035  1.0000
  N   N11       1.0  0.51960  0.09640  0.52280  1.0000
  C   C85       1.0  0.65580  0.14320  0.61220  1.0000
  H   H32       1.0  0.68640  0.15380  0.63220  1.0000
  O   O64       1.0  0.59295  0.06246  0.71189  1.0000
  C   C86       1.0  0.64510  0.16670  0.56180  1.0000
  O   O65       1.0  0.72351  0.22186  0.56664  1.0000
  C   C87       1.0  0.60030  0.15110  0.53320  1.0000
  H   H33       1.0  0.59280  0.16660  0.49920  1.0000
  O   O66       1.0  0.67130  0.22885  0.49530  1.0000
  C   C88       1.0  0.56670  0.11290  0.55470  1.0000
  C   C89       1.0  0.12130  0.60460  0.13220  1.0000
  O   O67       1.0  0.18085  0.57641  0.20035  1.0000
  N   N12       1.0  0.01960  0.59640  0.02280  1.0000
  C   C90       1.0  0.15580  0.64320  0.11220  1.0000
  H   H34       1.0  0.18640  0.65380  0.13220  1.0000
  O   O68       1.0  0.09295  0.56246  0.21189  1.0000
  C   C91       1.0  0.14510  0.66670  0.06180  1.0000
  O   O69       1.0  0.22351  0.72186  0.06664  1.0000
  C   C92       1.0  0.10030  0.65110  0.03320  1.0000
  H   H35       1.0  0.09280  0.66660  0.99920  1.0000
  O   O70       1.0  0.17130  0.72885  0.99530  1.0000
  C   C93       1.0  0.06670  0.61290  0.05470  1.0000
  O   O71       1.0  0.01550  0.61410  0.97820  1.0000
  C   C94       1.0  0.07540  0.58930  0.10370  1.0000
  H   H36       1.0  0.05110  0.56360  0.11780  1.0000
  O   O72       1.0  0.98770  0.56540  0.04380  1.0000
  C   C95       1.0  0.13250  0.58000  0.18670  1.0000
  C   C96       1.0  0.18180  0.70860  0.04070  1.0000
  C   C97       1.0  0.39970  0.65110  0.96680  1.0000
  H   H37       1.0  0.40720  0.66660  0.00080  1.0000
  O   O73       1.0  0.32870  0.72885  0.00470  1.0000
  C   C98       1.0  0.43330  0.61290  0.94530  1.0000
  O   O74       1.0  0.48450  0.61410  0.02180  1.0000
  C   C99       1.0  0.42460  0.58930  0.89630  1.0000
  H   H38       1.0  0.44890  0.56360  0.88220  1.0000
  O   O75       1.0  0.51230  0.56540  0.95620  1.0000
  C   C100      1.0  0.36750  0.58000  0.81330  1.0000
  C   C101      1.0  0.31820  0.70860  0.95930  1.0000
  C   C102      1.0  0.37870  0.60460  0.86780  1.0000
  O   O76       1.0  0.31915  0.57641  0.79965  1.0000
  N   N13       1.0  0.48040  0.59640  0.97720  1.0000
  C   C103      1.0  0.34420  0.64320  0.88780  1.0000
  H   H39       1.0  0.31360  0.65380  0.86780  1.0000
  O   O77       1.0  0.40705  0.56246  0.78811  1.0000
  C   C104      1.0  0.35490  0.66670  0.93820  1.0000
  O   O78       1.0  0.27649  0.72186  0.93336  1.0000
  C   C105      1.0  0.87870  0.10460  0.36780  1.0000
  O   O79       1.0  0.81915  0.07641  0.29965  1.0000
  N   N14       1.0  0.98040  0.09640  0.47720  1.0000
  C   C106      1.0  0.84420  0.14320  0.38780  1.0000
  H   H40       1.0  0.81360  0.15380  0.36780  1.0000
  O   O80       1.0  0.90705  0.06246  0.28811  1.0000
  C   C107      1.0  0.85490  0.16670  0.43820  1.0000
  O   O81       1.0  0.77649  0.22186  0.43336  1.0000
  C   C108      1.0  0.89970  0.15110  0.46680  1.0000
  H   H41       1.0  0.90720  0.16660  0.50080  1.0000
  O   O82       1.0  0.82870  0.22885  0.50470  1.0000
  C   C109      1.0  0.93330  0.11290  0.44530  1.0000
  O   O83       1.0  0.98450  0.11410  0.52180  1.0000
  C   C110      1.0  0.92460  0.08930  0.39630  1.0000
  H   H42       1.0  0.94890  0.06360  0.38220  1.0000
  O   O84       1.0  0.01230  0.06540  0.45620  1.0000
  C   C111      1.0  0.86750  0.08000  0.31330  1.0000
  C   C112      1.0  0.81820  0.20860  0.45930  1.0000
  H   H43       1.0  0.81360  0.84620  0.13220  1.0000
  O   O85       1.0  0.90705  0.93754  0.21189  1.0000
  C   C113      1.0  0.85490  0.83330  0.06180  1.0000
  O   O86       1.0  0.77649  0.77814  0.06664  1.0000
  C   C114      1.0  0.89970  0.84890  0.03320  1.0000
  H   H44       1.0  0.90720  0.83340  0.99920  1.0000
  O   O87       1.0  0.82870  0.77115  0.99530  1.0000
  C   C115      1.0  0.93330  0.88710  0.05470  1.0000
  O   O88       1.0  0.98450  0.88590  0.97820  1.0000
  C   C116      1.0  0.92460  0.91070  0.10370  1.0000
  H   H45       1.0  0.94890  0.93640  0.11780  1.0000
  O   O89       1.0  0.01230  0.93460  0.04380  1.0000
  C   C117      1.0  0.86750  0.92000  0.18670  1.0000
  C   C118      1.0  0.81820  0.79140  0.04070  1.0000
  C   C119      1.0  0.87870  0.89540  0.13220  1.0000
  O   O90       1.0  0.81915  0.92359  0.20035  1.0000
  N   N15       1.0  0.98040  0.90360  0.02280  1.0000
  C   C120      1.0  0.84420  0.85680  0.11220  1.0000
  C   C121      1.0  0.37870  0.39540  0.63220  1.0000
  O   O91       1.0  0.31915  0.42359  0.70035  1.0000
  N   N16       1.0  0.48040  0.40360  0.52280  1.0000
  C   C122      1.0  0.34420  0.35680  0.61220  1.0000
  H   H46       1.0  0.31360  0.34620  0.63220  1.0000
  O   O92       1.0  0.40705  0.43754  0.71189  1.0000
  C   C123      1.0  0.35490  0.33330  0.56180  1.0000
  O   O93       1.0  0.27649  0.27814  0.56664  1.0000
  C   C124      1.0  0.39970  0.34890  0.53320  1.0000
  H   H47       1.0  0.40720  0.33340  0.49920  1.0000
  O   O94       1.0  0.32870  0.27115  0.49530  1.0000
  C   C125      1.0  0.43330  0.38710  0.55470  1.0000
  O   O95       1.0  0.48450  0.38590  0.47820  1.0000
  C   C126      1.0  0.42460  0.41070  0.60370  1.0000
  H   H48       1.0  0.44890  0.43640  0.61780  1.0000
  O   O96       1.0  0.51230  0.43460  0.54380  1.0000
  C   C127      1.0  0.36750  0.42000  0.68670  1.0000
  C   C128      1.0  0.31820  0.29140  0.54070  1.0000
  C   C129      1.0  0.36780  0.12130  0.39540  1.0000
  O   O97       1.0  0.29965  0.18085  0.42359  1.0000
  N   N17       1.0  0.47720  0.01960  0.40360  1.0000
  C   C130      1.0  0.38780  0.15580  0.35680  1.0000
  H   H49       1.0  0.36780  0.18640  0.34620  1.0000
  O   O98       1.0  0.28811  0.09295  0.43754  1.0000
  C   C131      1.0  0.43820  0.14510  0.33330  1.0000
  O   O99       1.0  0.43336  0.22351  0.27814  1.0000
  C   C132      1.0  0.46680  0.10030  0.34890  1.0000
  H   H50       1.0  0.50080  0.09280  0.33340  1.0000
  O   O100      1.0  0.50470  0.17130  0.27115  1.0000
  C   C133      1.0  0.44530  0.06670  0.38710  1.0000
  O   O101      1.0  0.52180  0.01550  0.38590  1.0000
  C   C134      1.0  0.39630  0.07540  0.41070  1.0000
  H   H51       1.0  0.38220  0.05110  0.43640  1.0000
  O   O102      1.0  0.45620  0.98770  0.43460  1.0000
  C   C135      1.0  0.31330  0.13250  0.42000  1.0000
  C   C136      1.0  0.45930  0.18180  0.29140  1.0000
  H   H52       1.0  0.88220  0.55110  0.93640  1.0000
  O   O103      1.0  0.95620  0.48770  0.93460  1.0000
  C   C137      1.0  0.81330  0.63250  0.92000  1.0000
  C   C138      1.0  0.95930  0.68180  0.79140  1.0000
  C   C139      1.0  0.86780  0.62130  0.89540  1.0000
  O   O104      1.0  0.79965  0.68085  0.92359  1.0000
  N   N18       1.0  0.97720  0.51960  0.90360  1.0000
  C   C140      1.0  0.88780  0.65580  0.85680  1.0000
  H   H53       1.0  0.86780  0.68640  0.84620  1.0000
  O   O105      1.0  0.78811  0.59295  0.93754  1.0000
  C   C141      1.0  0.93820  0.64510  0.83330  1.0000
  O   O106      1.0  0.93336  0.72351  0.77814  1.0000
  C   C142      1.0  0.96680  0.60030  0.84890  1.0000
  H   H54       1.0  0.00080  0.59280  0.83340  1.0000
  O   O107      1.0  0.00470  0.67130  0.77115  1.0000
  C   C143      1.0  0.94530  0.56670  0.88710  1.0000
  O   O108      1.0  0.02180  0.51550  0.88590  1.0000
  C   C144      1.0  0.89630  0.57540  0.91070  1.0000
  C   C145      1.0  0.63220  0.62130  0.10460  1.0000
  O   O109      1.0  0.70035  0.68085  0.07641  1.0000
  N   N19       1.0  0.52280  0.51960  0.09640  1.0000
  C   C146      1.0  0.61220  0.65580  0.14320  1.0000
  H   H55       1.0  0.63220  0.68640  0.15380  1.0000
  O   O110      1.0  0.71189  0.59295  0.06246  1.0000
  C   C147      1.0  0.56180  0.64510  0.16670  1.0000
  O   O111      1.0  0.56664  0.72351  0.22186  1.0000
  C   C148      1.0  0.53320  0.60030  0.15110  1.0000
  H   H56       1.0  0.49920  0.59280  0.16660  1.0000
  O   O112      1.0  0.49530  0.67130  0.22885  1.0000
  C   C149      1.0  0.55470  0.56670  0.11290  1.0000
  O   O113      1.0  0.47820  0.51550  0.11410  1.0000
  C   C150      1.0  0.60370  0.57540  0.08930  1.0000
  H   H57       1.0  0.61780  0.55110  0.06360  1.0000
  O   O114      1.0  0.54380  0.48770  0.06540  1.0000
  C   C151      1.0  0.68670  0.63250  0.08000  1.0000
  C   C152      1.0  0.54070  0.68180  0.20860  1.0000
  O   O115      1.0  0.99530  0.17130  0.72885  1.0000
  C   C153      1.0  0.05470  0.06670  0.61290  1.0000
  O   O116      1.0  0.97820  0.01550  0.61410  1.0000
  C   C154      1.0  0.10370  0.07540  0.58930  1.0000
  H   H58       1.0  0.11780  0.05110  0.56360  1.0000
  O   O117      1.0  0.04380  0.98770  0.56540  1.0000
  C   C155      1.0  0.18670  0.13250  0.58000  1.0000
  C   C156      1.0  0.04070  0.18180  0.70860  1.0000
  C   C157      1.0  0.13220  0.12130  0.60460  1.0000
  O   O118      1.0  0.20035  0.18085  0.57641  1.0000
  N   N20       1.0  0.02280  0.01960  0.59640  1.0000
  C   C158      1.0  0.11220  0.15580  0.64320  1.0000
  H   H59       1.0  0.13220  0.18640  0.65380  1.0000
  O   O119      1.0  0.21189  0.09295  0.56246  1.0000
  C   C159      1.0  0.06180  0.14510  0.66670  1.0000
  O   O120      1.0  0.06664  0.22351  0.72186  1.0000
  C   C160      1.0  0.03320  0.10030  0.65110  1.0000
  H   H60       1.0  0.99920  0.09280  0.66660  1.0000
  C   C161      1.0  0.86780  0.37870  0.60460  1.0000
  O   O121      1.0  0.79965  0.31915  0.57641  1.0000
  N   N21       1.0  0.97720  0.48040  0.59640  1.0000
  C   C162      1.0  0.88780  0.34420  0.64320  1.0000
  H   H61       1.0  0.86780  0.31360  0.65380  1.0000
  O   O122      1.0  0.78811  0.40705  0.56246  1.0000
  C   C163      1.0  0.93820  0.35490  0.66670  1.0000
  O   O123      1.0  0.93336  0.27649  0.72186  1.0000
  C   C164      1.0  0.96680  0.39970  0.65110  1.0000
  H   H62       1.0  0.00080  0.40720  0.66660  1.0000
  O   O124      1.0  0.00470  0.32870  0.72885  1.0000
  C   C165      1.0  0.94530  0.43330  0.61290  1.0000
  O   O125      1.0  0.02180  0.48450  0.61410  1.0000
  C   C166      1.0  0.89630  0.42460  0.58930  1.0000
  H   H63       1.0  0.88220  0.44890  0.56360  1.0000
  O   O126      1.0  0.95620  0.51230  0.56540  1.0000
  C   C167      1.0  0.81330  0.36750  0.58000  1.0000
  C   C168      1.0  0.95930  0.31820  0.70860  1.0000
  C   C169      1.0  0.43820  0.85490  0.16670  1.0000
  O   O127      1.0  0.43336  0.77649  0.22186  1.0000
  C   C170      1.0  0.46680  0.89970  0.15110  1.0000
  H   H64       1.0  0.50080  0.90720  0.16660  1.0000
  O   O128      1.0  0.50470  0.82870  0.22885  1.0000
  C   C171      1.0  0.44530  0.93330  0.11290  1.0000
  O   O129      1.0  0.52180  0.98450  0.11410  1.0000
  C   C172      1.0  0.39630  0.92460  0.08930  1.0000
  H   H65       1.0  0.38220  0.94890  0.06360  1.0000
  O   O130      1.0  0.45620  0.01230  0.06540  1.0000
  C   C173      1.0  0.31330  0.86750  0.08000  1.0000
  C   C174      1.0  0.45930  0.81820  0.20860  1.0000
  C   C175      1.0  0.36780  0.87870  0.10460  1.0000
  O   O131      1.0  0.29965  0.81915  0.07641  1.0000
  N   N22       1.0  0.47720  0.98040  0.09640  1.0000
  C   C176      1.0  0.38780  0.84420  0.14320  1.0000
  H   H66       1.0  0.36780  0.81360  0.15380  1.0000
  O   O132      1.0  0.28811  0.90705  0.06246  1.0000
  C   C177      1.0  0.13220  0.87870  0.89540  1.0000
  O   O133      1.0  0.20035  0.81915  0.92359  1.0000
  N   N23       1.0  0.02280  0.98040  0.90360  1.0000
  C   C178      1.0  0.11220  0.84420  0.85680  1.0000
  H   H67       1.0  0.13220  0.81360  0.84620  1.0000
  O   O134      1.0  0.21189  0.90705  0.93754  1.0000
  C   C179      1.0  0.06180  0.85490  0.83330  1.0000
  O   O135      1.0  0.06664  0.77649  0.77814  1.0000
  C   C180      1.0  0.03320  0.89970  0.84890  1.0000
  H   H68       1.0  0.99920  0.90720  0.83340  1.0000
  O   O136      1.0  0.99530  0.82870  0.77115  1.0000
  C   C181      1.0  0.05470  0.93330  0.88710  1.0000
  O   O137      1.0  0.97820  0.98450  0.88590  1.0000
  C   C182      1.0  0.10370  0.92460  0.91070  1.0000
  H   H69       1.0  0.11780  0.94890  0.93640  1.0000
  O   O138      1.0  0.04380  0.01230  0.93460  1.0000
  C   C183      1.0  0.18670  0.86750  0.92000  1.0000
  C   C184      1.0  0.04070  0.81820  0.79140  1.0000
  N   N24       1.0  0.52280  0.48040  0.40360  1.0000
  C   C185      1.0  0.61220  0.34420  0.35680  1.0000
  H   H70       1.0  0.63220  0.31360  0.34620  1.0000
  O   O139      1.0  0.71189  0.40705  0.43754  1.0000
  C   C186      1.0  0.56180  0.35490  0.33330  1.0000
  O   O140      1.0  0.56664  0.27649  0.27814  1.0000
  C   C187      1.0  0.53320  0.39970  0.34890  1.0000
  H   H71       1.0  0.49920  0.40720  0.33340  1.0000
  O   O141      1.0  0.49530  0.32870  0.27115  1.0000
  C   C188      1.0  0.55470  0.43330  0.38710  1.0000
  O   O142      1.0  0.47820  0.48450  0.38590  1.0000
  C   C189      1.0  0.60370  0.42460  0.41070  1.0000
  H   H72       1.0  0.61780  0.44890  0.43640  1.0000
  O   O143      1.0  0.54380  0.51230  0.43460  1.0000
  C   C190      1.0  0.68670  0.36750  0.42000  1.0000
  C   C191      1.0  0.54070  0.31820  0.29140  1.0000
  C   C192      1.0  0.63220  0.37870  0.39540  1.0000
  O   O144      1.0  0.70035  0.31915  0.42359  1.0000
  C   C193      1.0  0.56330  0.67000  0.38250  1.0000
  C   C194      1.0  0.70930  0.54140  0.43180  1.0000
  C   C195      1.0  0.61780  0.64540  0.37130  1.0000
  O   O145      1.0  0.54965  0.67359  0.43085  1.0000
  N   N25       1.0  0.72720  0.65360  0.26960  1.0000
  C   C196      1.0  0.63780  0.60680  0.40580  1.0000
  H   H73       1.0  0.61780  0.59620  0.43640  1.0000
  O   O146      1.0  0.53811  0.68754  0.34295  1.0000
  C   C197      1.0  0.68820  0.58330  0.39510  1.0000
  O   O147      1.0  0.68336  0.52814  0.47351  1.0000
  C   C198      1.0  0.71680  0.59890  0.35030  1.0000
  H   H74       1.0  0.75080  0.58340  0.34280  1.0000
  O   O148      1.0  0.75470  0.52115  0.42130  1.0000
  C   C199      1.0  0.69530  0.63710  0.31670  1.0000
  O   O149      1.0  0.77180  0.63590  0.26550  1.0000
  C   C200      1.0  0.64630  0.66070  0.32540  1.0000
  H   H75       1.0  0.63220  0.68640  0.30110  1.0000
  O   O150      1.0  0.70620  0.68460  0.23770  1.0000
  C   C201      1.0  0.11780  0.14540  0.87130  1.0000
  O   O151      1.0  0.04965  0.17359  0.93085  1.0000
  N   N26       1.0  0.22720  0.15360  0.76960  1.0000
  C   C202      1.0  0.13780  0.10680  0.90580  1.0000
  H   H76       1.0  0.11780  0.09620  0.93640  1.0000
  O   O152      1.0  0.03811  0.18754  0.84295  1.0000
  C   C203      1.0  0.18820  0.08330  0.89510  1.0000
  O   O153      1.0  0.18336  0.02814  0.97351  1.0000
  C   C204      1.0  0.21680  0.09890  0.85030  1.0000
  H   H77       1.0  0.25080  0.08340  0.84280  1.0000
  O   O154      1.0  0.25470  0.02115  0.92130  1.0000
  C   C205      1.0  0.19530  0.13710  0.81670  1.0000
  O   O155      1.0  0.27180  0.13590  0.76550  1.0000
  C   C206      1.0  0.14630  0.16070  0.82540  1.0000
  H   H78       1.0  0.13220  0.18640  0.80110  1.0000
  O   O156      1.0  0.20620  0.18460  0.73770  1.0000
  C   C207      1.0  0.06330  0.17000  0.88250  1.0000
  C   C208      1.0  0.20930  0.04140  0.93180  1.0000
  O   O157      1.0  0.72820  0.36410  0.76550  1.0000
  C   C209      1.0  0.85370  0.33930  0.82540  1.0000
  H   H79       1.0  0.86780  0.31360  0.80110  1.0000
  O   O158      1.0  0.79380  0.31540  0.73770  1.0000
  C   C210      1.0  0.93670  0.33000  0.88250  1.0000
  C   C211      1.0  0.79070  0.45860  0.93180  1.0000
  C   C212      1.0  0.88220  0.35460  0.87130  1.0000
  O   O159      1.0  0.95035  0.32641  0.93085  1.0000
  N   N27       1.0  0.77280  0.34640  0.76960  1.0000
  C   C213      1.0  0.86220  0.39320  0.90580  1.0000
  H   H80       1.0  0.88220  0.40380  0.93640  1.0000
  O   O160      1.0  0.96189  0.31246  0.84295  1.0000
  C   C214      1.0  0.81180  0.41670  0.89510  1.0000
  O   O161      1.0  0.81664  0.47186  0.97351  1.0000
  C   C215      1.0  0.78320  0.40110  0.85030  1.0000
  H   H81       1.0  0.74920  0.41660  0.84280  1.0000
  O   O162      1.0  0.74530  0.47885  0.92130  1.0000
  C   C216      1.0  0.80470  0.36290  0.81670  1.0000
  C   C217      1.0  0.38220  0.85460  0.37130  1.0000
  O   O163      1.0  0.45035  0.82641  0.43085  1.0000
  N   N28       1.0  0.27280  0.84640  0.26960  1.0000
  C   C218      1.0  0.36220  0.89320  0.40580  1.0000
  H   H82       1.0  0.38220  0.90380  0.43640  1.0000
  O   O164      1.0  0.46189  0.81246  0.34295  1.0000
  C   C219      1.0  0.31180  0.91670  0.39510  1.0000
  O   O165      1.0  0.31664  0.97186  0.47351  1.0000
  C   C220      1.0  0.28320  0.90110  0.35030  1.0000
  H   H83       1.0  0.24920  0.91660  0.34280  1.0000
  O   O166      1.0  0.24530  0.97885  0.42130  1.0000
  C   C221      1.0  0.30470  0.86290  0.31670  1.0000
  O   O167      1.0  0.22820  0.86410  0.26550  1.0000
  C   C222      1.0  0.35370  0.83930  0.32540  1.0000
  H   H84       1.0  0.36780  0.81360  0.30110  1.0000
  O   O168      1.0  0.29380  0.81540  0.23770  1.0000
  C   C223      1.0  0.43670  0.83000  0.38250  1.0000
  C   C224      1.0  0.29070  0.95860  0.43180  1.0000
  C   C225      1.0  0.21680  0.90110  0.64970  1.0000
  H   H85       1.0  0.25080  0.91660  0.65720  1.0000
  O   O169      1.0  0.25470  0.97885  0.57870  1.0000
  C   C226      1.0  0.19530  0.86290  0.68330  1.0000
  O   O170      1.0  0.27180  0.86410  0.73450  1.0000
  C   C227      1.0  0.14630  0.83930  0.67460  1.0000
  H   H86       1.0  0.13220  0.81360  0.69890  1.0000
  O   O171      1.0  0.20620  0.81540  0.76230  1.0000
  C   C228      1.0  0.06330  0.83000  0.61750  1.0000
  C   C229      1.0  0.20930  0.95860  0.56820  1.0000
  C   C230      1.0  0.11780  0.85460  0.62870  1.0000
  O   O172      1.0  0.04965  0.82641  0.56915  1.0000
  N   N29       1.0  0.22720  0.84640  0.73040  1.0000
  C   C231      1.0  0.13780  0.89320  0.59420  1.0000
  H   H87       1.0  0.11780  0.90380  0.56360  1.0000
  O   O173      1.0  0.03811  0.81246  0.65705  1.0000
  C   C232      1.0  0.18820  0.91670  0.60490  1.0000
  O   O174      1.0  0.18336  0.97186  0.52649  1.0000
  C   C233      1.0  0.61780  0.35460  0.12870  1.0000
  O   O175      1.0  0.54965  0.32641  0.06915  1.0000
  N   N30       1.0  0.72720  0.34640  0.23040  1.0000
  C   C234      1.0  0.63780  0.39320  0.09420  1.0000
  H   H88       1.0  0.61780  0.40380  0.06360  1.0000
  O   O176      1.0  0.53811  0.31246  0.15705  1.0000
  C   C235      1.0  0.68820  0.41670  0.10490  1.0000
  O   O177      1.0  0.68336  0.47186  0.02649  1.0000
  C   C236      1.0  0.71680  0.40110  0.14970  1.0000
  H   H89       1.0  0.75080  0.41660  0.15720  1.0000
  O   O178      1.0  0.75470  0.47885  0.07870  1.0000
  C   C237      1.0  0.69530  0.36290  0.18330  1.0000
  O   O179      1.0  0.77180  0.36410  0.23450  1.0000
  C   C238      1.0  0.64630  0.33930  0.17460  1.0000
  H   H90       1.0  0.63220  0.31360  0.19890  1.0000
  O   O180      1.0  0.70620  0.31540  0.26230  1.0000
  C   C239      1.0  0.56330  0.33000  0.11750  1.0000
  C   C240      1.0  0.70930  0.45860  0.06820  1.0000
  H   H91       1.0  0.38220  0.09620  0.06360  1.0000
  O   O181      1.0  0.46189  0.18754  0.15705  1.0000
  C   C241      1.0  0.31180  0.08330  0.10490  1.0000
  O   O182      1.0  0.31664  0.02814  0.02649  1.0000
  C   C242      1.0  0.28320  0.09890  0.14970  1.0000
  H   H92       1.0  0.24920  0.08340  0.15720  1.0000
  O   O183      1.0  0.24530  0.02115  0.07870  1.0000
  C   C243      1.0  0.30470  0.13710  0.18330  1.0000
  O   O184      1.0  0.22820  0.13590  0.23450  1.0000
  C   C244      1.0  0.35370  0.16070  0.17460  1.0000
  H   H93       1.0  0.36780  0.18640  0.19890  1.0000
  O   O185      1.0  0.29380  0.18460  0.26230  1.0000
  C   C245      1.0  0.43670  0.17000  0.11750  1.0000
  C   C246      1.0  0.29070  0.04140  0.06820  1.0000
  C   C247      1.0  0.38220  0.14540  0.12870  1.0000
  O   O186      1.0  0.45035  0.17359  0.06915  1.0000
  N   N31       1.0  0.27280  0.15360  0.23040  1.0000
  C   C248      1.0  0.36220  0.10680  0.09420  1.0000
  C   C249      1.0  0.88220  0.64540  0.62870  1.0000
  O   O187      1.0  0.95035  0.67359  0.56915  1.0000
  N   N32       1.0  0.77280  0.65360  0.73040  1.0000
  C   C250      1.0  0.86220  0.60680  0.59420  1.0000
  H   H94       1.0  0.88220  0.59620  0.56360  1.0000
  O   O188      1.0  0.96189  0.68754  0.65705  1.0000
  C   C251      1.0  0.81180  0.58330  0.60490  1.0000
  O   O189      1.0  0.81664  0.52814  0.52649  1.0000
  C   C252      1.0  0.78320  0.59890  0.64970  1.0000
  H   H95       1.0  0.74920  0.58340  0.65720  1.0000
  O   O190      1.0  0.74530  0.52115  0.57870  1.0000
  C   C253      1.0  0.80470  0.63710  0.68330  1.0000
  O   O191      1.0  0.72820  0.63590  0.73450  1.0000
  C   C254      1.0  0.85370  0.66070  0.67460  1.0000
  H   H96       1.0  0.86780  0.68640  0.69890  1.0000
  O   O192      1.0  0.79380  0.68460  0.76230  1.0000
  C   C255      1.0  0.93670  0.67000  0.61750  1.0000
  C   C256      1.0  0.79070  0.54140  0.56820  1.0000
  C   C257      1.0  0.64540  0.37130  0.61780  1.0000
  O   O193      1.0  0.67359  0.43085  0.54965  1.0000
  N   N33       1.0  0.65360  0.26960  0.72720  1.0000
  C   C258      1.0  0.60680  0.40580  0.63780  1.0000
  H   H97       1.0  0.59620  0.43640  0.61780  1.0000
  O   O194      1.0  0.68754  0.34295  0.53811  1.0000
  C   C259      1.0  0.58330  0.39510  0.68820  1.0000
  O   O195      1.0  0.52814  0.47351  0.68336  1.0000
  C   C260      1.0  0.59890  0.35030  0.71680  1.0000
  H   H98       1.0  0.58340  0.34280  0.75080  1.0000
  O   O196      1.0  0.52115  0.42130  0.75470  1.0000
  C   C261      1.0  0.63710  0.31670  0.69530  1.0000
  O   O197      1.0  0.63590  0.26550  0.77180  1.0000
  C   C262      1.0  0.66070  0.32540  0.64630  1.0000
  H   H99       1.0  0.68640  0.30110  0.63220  1.0000
  O   O198      1.0  0.68460  0.23770  0.70620  1.0000
  C   C263      1.0  0.67000  0.38250  0.56330  1.0000
  C   C264      1.0  0.54140  0.43180  0.70930  1.0000
  H   H100      1.0  0.18640  0.80110  0.13220  1.0000
  O   O199      1.0  0.18460  0.73770  0.20620  1.0000
  C   C265      1.0  0.17000  0.88250  0.06330  1.0000
  C   C266      1.0  0.04140  0.93180  0.20930  1.0000
  C   C267      1.0  0.14540  0.87130  0.11780  1.0000
  O   O200      1.0  0.17359  0.93085  0.04965  1.0000
  N   N34       1.0  0.15360  0.76960  0.22720  1.0000
  C   C268      1.0  0.10680  0.90580  0.13780  1.0000
  H   H101      1.0  0.09620  0.93640  0.11780  1.0000
  O   O201      1.0  0.18754  0.84295  0.03811  1.0000
  C   C269      1.0  0.08330  0.89510  0.18820  1.0000
  O   O202      1.0  0.02814  0.97351  0.18336  1.0000
  C   C270      1.0  0.09890  0.85030  0.21680  1.0000
  H   H102      1.0  0.08340  0.84280  0.25080  1.0000
  O   O203      1.0  0.02115  0.92130  0.25470  1.0000
  C   C271      1.0  0.13710  0.81670  0.19530  1.0000
  O   O204      1.0  0.13590  0.76550  0.27180  1.0000
  C   C272      1.0  0.16070  0.82540  0.14630  1.0000
  C   C273      1.0  0.35460  0.87130  0.88220  1.0000
  O   O205      1.0  0.32641  0.93085  0.95035  1.0000
  N   N35       1.0  0.34640  0.76960  0.77280  1.0000
  C   C274      1.0  0.39320  0.90580  0.86220  1.0000
  H   H103      1.0  0.40380  0.93640  0.88220  1.0000
  O   O206      1.0  0.31246  0.84295  0.96189  1.0000
  C   C275      1.0  0.41670  0.89510  0.81180  1.0000
  O   O207      1.0  0.47186  0.97351  0.81664  1.0000
  C   C276      1.0  0.40110  0.85030  0.78320  1.0000
  H   H104      1.0  0.41660  0.84280  0.74920  1.0000
  O   O208      1.0  0.47885  0.92130  0.74530  1.0000
  C   C277      1.0  0.36290  0.81670  0.80470  1.0000
  O   O209      1.0  0.36410  0.76550  0.72820  1.0000
  C   C278      1.0  0.33930  0.82540  0.85370  1.0000
  H   H105      1.0  0.31360  0.80110  0.86780  1.0000
  O   O210      1.0  0.31540  0.73770  0.79380  1.0000
  C   C279      1.0  0.33000  0.88250  0.93670  1.0000
  C   C280      1.0  0.45860  0.93180  0.79070  1.0000
  O   O211      1.0  0.97885  0.42130  0.24530  1.0000
  C   C281      1.0  0.86290  0.31670  0.30470  1.0000
  O   O212      1.0  0.86410  0.26550  0.22820  1.0000
  C   C282      1.0  0.83930  0.32540  0.35370  1.0000
  H   H106      1.0  0.81360  0.30110  0.36780  1.0000
  O   O213      1.0  0.81540  0.23770  0.29380  1.0000
  C   C283      1.0  0.83000  0.38250  0.43670  1.0000
  C   C284      1.0  0.95860  0.43180  0.29070  1.0000
  C   C285      1.0  0.85460  0.37130  0.38220  1.0000
  O   O214      1.0  0.82641  0.43085  0.45035  1.0000
  N   N36       1.0  0.84640  0.26960  0.27280  1.0000
  C   C286      1.0  0.89320  0.40580  0.36220  1.0000
  H   H107      1.0  0.90380  0.43640  0.38220  1.0000
  O   O215      1.0  0.81246  0.34295  0.46189  1.0000
  C   C287      1.0  0.91670  0.39510  0.31180  1.0000
  O   O216      1.0  0.97186  0.47351  0.31664  1.0000
  C   C288      1.0  0.90110  0.35030  0.28320  1.0000
  H   H108      1.0  0.91660  0.34280  0.24920  1.0000
  C   C289      1.0  0.85460  0.62870  0.11780  1.0000
  O   O217      1.0  0.82641  0.56915  0.04965  1.0000
  N   N37       1.0  0.84640  0.73040  0.22720  1.0000
  C   C290      1.0  0.89320  0.59420  0.13780  1.0000
  H   H109      1.0  0.90380  0.56360  0.11780  1.0000
  O   O218      1.0  0.81246  0.65705  0.03811  1.0000
  C   C291      1.0  0.91670  0.60490  0.18820  1.0000
  O   O219      1.0  0.97186  0.52649  0.18336  1.0000
  C   C292      1.0  0.90110  0.64970  0.21680  1.0000
  H   H110      1.0  0.91660  0.65720  0.25080  1.0000
  O   O220      1.0  0.97885  0.57870  0.25470  1.0000
  C   C293      1.0  0.86290  0.68330  0.19530  1.0000
  O   O221      1.0  0.86410  0.73450  0.27180  1.0000
  C   C294      1.0  0.83930  0.67460  0.14630  1.0000
  H   H111      1.0  0.81360  0.69890  0.13220  1.0000
  O   O222      1.0  0.81540  0.76230  0.20620  1.0000
  C   C295      1.0  0.83000  0.61750  0.06330  1.0000
  C   C296      1.0  0.95860  0.56820  0.20930  1.0000
  C   C297      1.0  0.41670  0.10490  0.68820  1.0000
  O   O223      1.0  0.47186  0.02649  0.68336  1.0000
  C   C298      1.0  0.40110  0.14970  0.71680  1.0000
  H   H112      1.0  0.41660  0.15720  0.75080  1.0000
  O   O224      1.0  0.47885  0.07870  0.75470  1.0000
  C   C299      1.0  0.36290  0.18330  0.69530  1.0000
  O   O225      1.0  0.36410  0.23450  0.77180  1.0000
  C   C300      1.0  0.33930  0.17460  0.64630  1.0000
  H   H113      1.0  0.31360  0.19890  0.63220  1.0000
  O   O226      1.0  0.31540  0.26230  0.70620  1.0000
  C   C301      1.0  0.33000  0.11750  0.56330  1.0000
  C   C302      1.0  0.45860  0.06820  0.70930  1.0000
  C   C303      1.0  0.35460  0.12870  0.61780  1.0000
  O   O227      1.0  0.32641  0.06915  0.54965  1.0000
  N   N38       1.0  0.34640  0.23040  0.72720  1.0000
  C   C304      1.0  0.39320  0.09420  0.63780  1.0000
  H   H114      1.0  0.40380  0.06360  0.61780  1.0000
  O   O228      1.0  0.31246  0.15705  0.53811  1.0000
  C   C305      1.0  0.14540  0.12870  0.38220  1.0000
  O   O229      1.0  0.17359  0.06915  0.45035  1.0000
  N   N39       1.0  0.15360  0.23040  0.27280  1.0000
  C   C306      1.0  0.10680  0.09420  0.36220  1.0000
  H   H115      1.0  0.09620  0.06360  0.38220  1.0000
  O   O230      1.0  0.18754  0.15705  0.46189  1.0000
  C   C307      1.0  0.08330  0.10490  0.31180  1.0000
  O   O231      1.0  0.02814  0.02649  0.31664  1.0000
  C   C308      1.0  0.09890  0.14970  0.28320  1.0000
  H   H116      1.0  0.08340  0.15720  0.24920  1.0000
  O   O232      1.0  0.02115  0.07870  0.24530  1.0000
  C   C309      1.0  0.13710  0.18330  0.30470  1.0000
  O   O233      1.0  0.13590  0.23450  0.22820  1.0000
  C   C310      1.0  0.16070  0.17460  0.35370  1.0000
  H   H117      1.0  0.18640  0.19890  0.36780  1.0000
  O   O234      1.0  0.18460  0.26230  0.29380  1.0000
  C   C311      1.0  0.17000  0.11750  0.43670  1.0000
  C   C312      1.0  0.04140  0.06820  0.29070  1.0000
  N   N40       1.0  0.65360  0.73040  0.77280  1.0000
  C   C313      1.0  0.60680  0.59420  0.86220  1.0000
  H   H118      1.0  0.59620  0.56360  0.88220  1.0000
  O   O235      1.0  0.68754  0.65705  0.96189  1.0000
  C   C314      1.0  0.58330  0.60490  0.81180  1.0000
  O   O236      1.0  0.52814  0.52649  0.81664  1.0000
  C   C315      1.0  0.59890  0.64970  0.78320  1.0000
  H   H119      1.0  0.58340  0.65720  0.74920  1.0000
  O   O237      1.0  0.52115  0.57870  0.74530  1.0000
  C   C316      1.0  0.63710  0.68330  0.80470  1.0000
  O   O238      1.0  0.63590  0.73450  0.72820  1.0000
  C   C317      1.0  0.66070  0.67460  0.85370  1.0000
  H   H120      1.0  0.68640  0.69890  0.86780  1.0000
  O   O239      1.0  0.68460  0.76230  0.79380  1.0000
  C   C318      1.0  0.67000  0.61750  0.93670  1.0000
  C   C319      1.0  0.54140  0.56820  0.79070  1.0000
  C   C320      1.0  0.64540  0.62870  0.88220  1.0000
  O   O240      1.0  0.67359  0.56915  0.95035  1.0000
  C   C321      1.0  0.38250  0.56330  0.67000  1.0000
  C   C322      1.0  0.43180  0.70930  0.54140  1.0000
  C   C323      1.0  0.37130  0.61780  0.64540  1.0000
  O   O241      1.0  0.43085  0.54965  0.67359  1.0000
  N   N41       1.0  0.26960  0.72720  0.65360  1.0000
  C   C324      1.0  0.40580  0.63780  0.60680  1.0000
  H   H121      1.0  0.43640  0.61780  0.59620  1.0000
  O   O242      1.0  0.34295  0.53811  0.68754  1.0000
  C   C325      1.0  0.39510  0.68820  0.58330  1.0000
  O   O243      1.0  0.47351  0.68336  0.52814  1.0000
  C   C326      1.0  0.35030  0.71680  0.59890  1.0000
  H   H122      1.0  0.34280  0.75080  0.58340  1.0000
  O   O244      1.0  0.42130  0.75470  0.52115  1.0000
  C   C327      1.0  0.31670  0.69530  0.63710  1.0000
  O   O245      1.0  0.26550  0.77180  0.63590  1.0000
  C   C328      1.0  0.32540  0.64630  0.66070  1.0000
  H   H123      1.0  0.30110  0.63220  0.68640  1.0000
  O   O246      1.0  0.23770  0.70620  0.68460  1.0000
  C   C329      1.0  0.87130  0.11780  0.14540  1.0000
  O   O247      1.0  0.93085  0.04965  0.17359  1.0000
  N   N42       1.0  0.76960  0.22720  0.15360  1.0000
  C   C330      1.0  0.90580  0.13780  0.10680  1.0000
  H   H124      1.0  0.93640  0.11780  0.09620  1.0000
  O   O248      1.0  0.84295  0.03811  0.18754  1.0000
  C   C331      1.0  0.89510  0.18820  0.08330  1.0000
  O   O249      1.0  0.97351  0.18336  0.02814  1.0000
  C   C332      1.0  0.85030  0.21680  0.09890  1.0000
  H   H125      1.0  0.84280  0.25080  0.08340  1.0000
  O   O250      1.0  0.92130  0.25470  0.02115  1.0000
  C   C333      1.0  0.81670  0.19530  0.13710  1.0000
  O   O251      1.0  0.76550  0.27180  0.13590  1.0000
  C   C334      1.0  0.82540  0.14630  0.16070  1.0000
  H   H126      1.0  0.80110  0.13220  0.18640  1.0000
  O   O252      1.0  0.73770  0.20620  0.18460  1.0000
  C   C335      1.0  0.88250  0.06330  0.17000  1.0000
  C   C336      1.0  0.93180  0.20930  0.04140  1.0000
  O   O253      1.0  0.76550  0.72820  0.36410  1.0000
  C   C337      1.0  0.82540  0.85370  0.33930  1.0000
  H   H127      1.0  0.80110  0.86780  0.31360  1.0000
  O   O254      1.0  0.73770  0.79380  0.31540  1.0000
  C   C338      1.0  0.88250  0.93670  0.33000  1.0000
  C   C339      1.0  0.93180  0.79070  0.45860  1.0000
  C   C340      1.0  0.87130  0.88220  0.35460  1.0000
  O   O255      1.0  0.93085  0.95035  0.32641  1.0000
  N   N43       1.0  0.76960  0.77280  0.34640  1.0000
  C   C341      1.0  0.90580  0.86220  0.39320  1.0000
  H   H128      1.0  0.93640  0.88220  0.40380  1.0000
  O   O256      1.0  0.84295  0.96189  0.31246  1.0000
  C   C342      1.0  0.89510  0.81180  0.41670  1.0000
  O   O257      1.0  0.97351  0.81664  0.47186  1.0000
  C   C343      1.0  0.85030  0.78320  0.40110  1.0000
  H   H129      1.0  0.84280  0.74920  0.41660  1.0000
  O   O258      1.0  0.92130  0.74530  0.47885  1.0000
  C   C344      1.0  0.81670  0.80470  0.36290  1.0000
  C   C345      1.0  0.37130  0.38220  0.85460  1.0000
  O   O259      1.0  0.43085  0.45035  0.82641  1.0000
  N   N44       1.0  0.26960  0.27280  0.84640  1.0000
  C   C346      1.0  0.40580  0.36220  0.89320  1.0000
  H   H130      1.0  0.43640  0.38220  0.90380  1.0000
  O   O260      1.0  0.34295  0.46189  0.81246  1.0000
  C   C347      1.0  0.39510  0.31180  0.91670  1.0000
  O   O261      1.0  0.47351  0.31664  0.97186  1.0000
  C   C348      1.0  0.35030  0.28320  0.90110  1.0000
  H   H131      1.0  0.34280  0.24920  0.91660  1.0000
  O   O262      1.0  0.42130  0.24530  0.97885  1.0000
  C   C349      1.0  0.31670  0.30470  0.86290  1.0000
  O   O263      1.0  0.26550  0.22820  0.86410  1.0000
  C   C350      1.0  0.32540  0.35370  0.83930  1.0000
  H   H132      1.0  0.30110  0.36780  0.81360  1.0000
  O   O264      1.0  0.23770  0.29380  0.81540  1.0000
  C   C351      1.0  0.38250  0.43670  0.83000  1.0000
  C   C352      1.0  0.43180  0.29070  0.95860  1.0000
  C   C353      1.0  0.64970  0.21680  0.90110  1.0000
  H   H133      1.0  0.65720  0.25080  0.91660  1.0000
  O   O265      1.0  0.57870  0.25470  0.97885  1.0000
  C   C354      1.0  0.68330  0.19530  0.86290  1.0000
  O   O266      1.0  0.73450  0.27180  0.86410  1.0000
  C   C355      1.0  0.67460  0.14630  0.83930  1.0000
  H   H134      1.0  0.69890  0.13220  0.81360  1.0000
  O   O267      1.0  0.76230  0.20620  0.81540  1.0000
  C   C356      1.0  0.61750  0.06330  0.83000  1.0000
  C   C357      1.0  0.56820  0.20930  0.95860  1.0000
  C   C358      1.0  0.62870  0.11780  0.85460  1.0000
  O   O268      1.0  0.56915  0.04965  0.82641  1.0000
  N   N45       1.0  0.73040  0.22720  0.84640  1.0000
  C   C359      1.0  0.59420  0.13780  0.89320  1.0000
  H   H135      1.0  0.56360  0.11780  0.90380  1.0000
  O   O269      1.0  0.65705  0.03811  0.81246  1.0000
  C   C360      1.0  0.60490  0.18820  0.91670  1.0000
  O   O270      1.0  0.52649  0.18336  0.97186  1.0000
  C   C361      1.0  0.12870  0.61780  0.35460  1.0000
  O   O271      1.0  0.06915  0.54965  0.32641  1.0000
  N   N46       1.0  0.23040  0.72720  0.34640  1.0000
  C   C362      1.0  0.09420  0.63780  0.39320  1.0000
  H   H136      1.0  0.06360  0.61780  0.40380  1.0000
  O   O272      1.0  0.15705  0.53811  0.31246  1.0000
  C   C363      1.0  0.10490  0.68820  0.41670  1.0000
  O   O273      1.0  0.02649  0.68336  0.47186  1.0000
  C   C364      1.0  0.14970  0.71680  0.40110  1.0000
  H   H137      1.0  0.15720  0.75080  0.41660  1.0000
  O   O274      1.0  0.07870  0.75470  0.47885  1.0000
  C   C365      1.0  0.18330  0.69530  0.36290  1.0000
  O   O275      1.0  0.23450  0.77180  0.36410  1.0000
  C   C366      1.0  0.17460  0.64630  0.33930  1.0000
  H   H138      1.0  0.19890  0.63220  0.31360  1.0000
  O   O276      1.0  0.26230  0.70620  0.31540  1.0000
  C   C367      1.0  0.11750  0.56330  0.33000  1.0000
  C   C368      1.0  0.06820  0.70930  0.45860  1.0000
  H   H139      1.0  0.06360  0.38220  0.09620  1.0000
  O   O277      1.0  0.15705  0.46189  0.18754  1.0000
  C   C369      1.0  0.10490  0.31180  0.08330  1.0000
  O   O278      1.0  0.02649  0.31664  0.02814  1.0000
  C   C370      1.0  0.14970  0.28320  0.09890  1.0000
  H   H140      1.0  0.15720  0.24920  0.08340  1.0000
  O   O279      1.0  0.07870  0.24530  0.02115  1.0000
  C   C371      1.0  0.18330  0.30470  0.13710  1.0000
  O   O280      1.0  0.23450  0.22820  0.13590  1.0000
  C   C372      1.0  0.17460  0.35370  0.16070  1.0000
  H   H141      1.0  0.19890  0.36780  0.18640  1.0000
  O   O281      1.0  0.26230  0.29380  0.18460  1.0000
  C   C373      1.0  0.11750  0.43670  0.17000  1.0000
  C   C374      1.0  0.06820  0.29070  0.04140  1.0000
  C   C375      1.0  0.12870  0.38220  0.14540  1.0000
  O   O282      1.0  0.06915  0.45035  0.17359  1.0000
  N   N47       1.0  0.23040  0.27280  0.15360  1.0000
  C   C376      1.0  0.09420  0.36220  0.10680  1.0000
  C   C377      1.0  0.62870  0.88220  0.64540  1.0000
  O   O283      1.0  0.56915  0.95035  0.67359  1.0000
  N   N48       1.0  0.73040  0.77280  0.65360  1.0000
  C   C378      1.0  0.59420  0.86220  0.60680  1.0000
  H   H142      1.0  0.56360  0.88220  0.59620  1.0000
  O   O284      1.0  0.65705  0.96189  0.68754  1.0000
  C   C379      1.0  0.60490  0.81180  0.58330  1.0000
  O   O285      1.0  0.52649  0.81664  0.52814  1.0000
  C   C380      1.0  0.64970  0.78320  0.59890  1.0000
  H   H143      1.0  0.65720  0.74920  0.58340  1.0000
  O   O286      1.0  0.57870  0.74530  0.52115  1.0000
  C   C381      1.0  0.68330  0.80470  0.63710  1.0000
  O   O287      1.0  0.73450  0.72820  0.63590  1.0000
  C   C382      1.0  0.67460  0.85370  0.66070  1.0000
  H   H144      1.0  0.69890  0.86780  0.68640  1.0000
  O   O288      1.0  0.76230  0.79380  0.68460  1.0000
  C   C383      1.0  0.61750  0.93670  0.67000  1.0000
  C   C384      1.0  0.56820  0.79070  0.54140  1.0000
  Gd  Gd1       1.0  0.50000  0.25000  0.03779  1.0000
  Gd  Gd2       1.0  0.00000  0.75000  0.53779  1.0000
  Gd  Gd3       1.0  0.50000  0.75000  0.46221  1.0000
  Gd  Gd4       1.0  0.00000  0.25000  0.96221  1.0000
  Gd  Gd5       1.0  0.03779  0.50000  0.25000  1.0000
  Gd  Gd6       1.0  0.53779  0.00000  0.75000  1.0000
  Gd  Gd7       1.0  0.46221  0.50000  0.75000  1.0000
  Gd  Gd8       1.0  0.96221  0.00000  0.25000  1.0000
  Gd  Gd9       1.0  0.25000  0.03779  0.50000  1.0000
  Gd  Gd10      1.0  0.75000  0.53779  0.00000  1.0000
  Gd  Gd11      1.0  0.75000  0.46221  0.50000  1.0000
  Gd  Gd12      1.0  0.25000  0.96221  0.00000  1.0000
  Gd  Gd13      1.0  0.50000  0.75000  0.28779  1.0000
  Gd  Gd14      1.0  0.00000  0.25000  0.78779  1.0000
  Gd  Gd15      1.0  0.00000  0.75000  0.71221  1.0000
  Gd  Gd16      1.0  0.50000  0.25000  0.21221  1.0000
  Gd  Gd17      1.0  0.75000  0.28779  0.50000  1.0000
  Gd  Gd18      1.0  0.25000  0.78779  0.00000  1.0000
  Gd  Gd19      1.0  0.75000  0.71221  0.00000  1.0000
  Gd  Gd20      1.0  0.25000  0.21221  0.50000  1.0000
  Gd  Gd21      1.0  0.28779  0.50000  0.75000  1.0000
  Gd  Gd22      1.0  0.78779  0.00000  0.25000  1.0000
  Gd  Gd23      1.0  0.71221  0.00000  0.75000  1.0000
  Gd  Gd24      1.0  0.21221  0.50000  0.25000  1.0000
