data_image0
_chemical_formula_structural       NC2HNCHCHCH2NC2HNCHCHCH2NC2HNCHCHNC2HNCHCHCH3CHNC2HNCHCNC2HNCHCHCH3CH2NC2HNCHCHCH2NC2HNCHCHCH2NC2HNCHCHCH2NC2HNCHCHCH2NC2HNCHCHCH2NC2HNCHCHCH5NC2HNC3HCNCNCHCHCH3NC2HNCHCHCH2NC2HNCHCHCH3CHCH2NC2HNCHCHCH2NC2HNCNC2HNCHCHCH2NC2HNCHCHCH2NC2HNCHCHCH2NC2HNCHCHCH2NC2HNCHCHCH2NC2HNCHCHCH2NC2HNCHCHCH2NC2HNCHCHCH2NC2HNCHCHCH2NC2HNCHCHCH2NC2HNCHCHCH2NC2HNCHCHCH2NC2HNCHCHCH2NC2HNCHCHCH2CHCH2NC2HNCHCHCH2NC2HNCHNC2HNCHCHCH2NC2HNCHCHCH2O4C2O4C2OC2O3CO4CO2C2O6C2OCOCO2CO3COCO2CO6C2OC2O7C2O2C2O6C2O2C2O2CO2CO3COCO2CO2CO2Co18
_chemical_formula_sum              "N72 C216 H180 O72 Co18"
_cell_length_a       28.449
_cell_length_b       28.449
_cell_length_c       10.96
_cell_angle_alpha    90
_cell_angle_beta     90
_cell_angle_gamma    120

_space_group_name_H-M_alt    "P 1"
_space_group_IT_number       1

loop_
  _space_group_symop_operation_xyz
  'x, y, z'

loop_
  _atom_site_type_symbol
  _atom_site_label
  _atom_site_symmetry_multiplicity
  _atom_site_fract_x
  _atom_site_fract_y
  _atom_site_fract_z
  _atom_site_occupancy
  N   N1        1.0  0.90089  0.39621  0.06280  1.0000
  C   C1        1.0  0.89096  0.48949  0.04780  1.0000
  C   C2        1.0  0.92354  0.43190  0.97230  1.0000
  H   H1        1.0  0.94350  0.42510  0.91210  1.0000
  N   N2        1.0  0.88577  0.53465  0.03420  1.0000
  C   C3        1.0  0.91968  0.47789  0.96110  1.0000
  H   H2        1.0  0.93660  0.50180  0.89430  1.0000
  C   C4        1.0  0.86721  0.45228  0.14200  1.0000
  H   H3        1.0  0.84710  0.45800  0.20360  1.0000
  C   C5        1.0  0.87300  0.40735  0.14550  1.0000
  H   H4        1.0  0.85610  0.38240  0.21060  1.0000
  H   H5        1.0  0.91650  0.56400  0.98950  1.0000
  N   N3        1.0  0.72954  0.56756  0.10387  1.0000
  C   C6        1.0  0.82282  0.55763  0.11887  1.0000
  C   C7        1.0  0.76523  0.59021  0.19437  1.0000
  H   H6        1.0  0.75843  0.61017  0.25457  1.0000
  N   N4        1.0  0.86798  0.55244  0.13247  1.0000
  C   C8        1.0  0.81122  0.58635  0.20557  1.0000
  H   H7        1.0  0.83513  0.60327  0.27237  1.0000
  C   C9        1.0  0.78561  0.53388  0.02467  1.0000
  H   H8        1.0  0.79133  0.51377  0.96307  1.0000
  C   C10       1.0  0.74068  0.53967  0.02117  1.0000
  H   H9        1.0  0.71573  0.52277  0.95607  1.0000
  H   H10       1.0  0.89733  0.58317  0.17717  1.0000
  N   N5        1.0  0.39621  0.90089  0.43720  1.0000
  C   C11       1.0  0.48949  0.89096  0.45220  1.0000
  C   C12       1.0  0.43190  0.92354  0.52770  1.0000
  H   H11       1.0  0.42510  0.94350  0.58790  1.0000
  N   N6        1.0  0.53465  0.88577  0.46580  1.0000
  C   C13       1.0  0.47789  0.91968  0.53890  1.0000
  H   H12       1.0  0.50180  0.93660  0.60570  1.0000
  C   C14       1.0  0.45228  0.86721  0.35800  1.0000
  H   H13       1.0  0.45800  0.84710  0.29640  1.0000
  N   N7        1.0  0.56756  0.72954  0.39613  1.0000
  C   C15       1.0  0.55763  0.82282  0.38113  1.0000
  C   C16       1.0  0.59021  0.76523  0.30563  1.0000
  H   H14       1.0  0.61017  0.75843  0.24543  1.0000
  N   N8        1.0  0.55244  0.86798  0.36753  1.0000
  C   C17       1.0  0.58635  0.81122  0.29443  1.0000
  H   H15       1.0  0.60327  0.83513  0.22763  1.0000
  C   C18       1.0  0.53388  0.78561  0.47533  1.0000
  H   H16       1.0  0.51377  0.79133  0.53693  1.0000
  C   C19       1.0  0.53967  0.74068  0.47883  1.0000
  H   H17       1.0  0.52277  0.71573  0.54393  1.0000
  H   H18       1.0  0.56400  0.91650  0.51050  1.0000
  H   H19       1.0  0.58317  0.89733  0.32283  1.0000
  C   C20       1.0  0.40735  0.87300  0.35450  1.0000
  H   H20       1.0  0.38240  0.85610  0.28940  1.0000
  N   N9        1.0  0.06288  0.23422  0.77053  1.0000
  C   C21       1.0  0.15616  0.22429  0.78553  1.0000
  C   C22       1.0  0.09857  0.25687  0.86103  1.0000
  H   H21       1.0  0.09177  0.27683  0.92123  1.0000
  N   N10       1.0  0.20132  0.21910  0.79913  1.0000
  C   C23       1.0  0.14456  0.25301  0.87223  1.0000
  H   H22       1.0  0.16847  0.26993  0.93903  1.0000
  C   C24       1.0  0.11895  0.20054  0.69133  1.0000
  N   N11       1.0  0.23422  0.06288  0.72947  1.0000
  C   C25       1.0  0.22429  0.15616  0.71447  1.0000
  C   C26       1.0  0.25687  0.09857  0.63897  1.0000
  H   H23       1.0  0.27683  0.09177  0.57877  1.0000
  N   N12       1.0  0.21910  0.20132  0.70087  1.0000
  C   C27       1.0  0.25301  0.14456  0.62777  1.0000
  H   H24       1.0  0.26993  0.16847  0.56097  1.0000
  C   C28       1.0  0.20054  0.11895  0.80867  1.0000
  H   H25       1.0  0.18043  0.12467  0.87027  1.0000
  C   C29       1.0  0.20633  0.07402  0.81217  1.0000
  H   H26       1.0  0.18943  0.04907  0.87727  1.0000
  H   H27       1.0  0.23067  0.24983  0.84383  1.0000
  H   H28       1.0  0.24983  0.23067  0.65617  1.0000
  C   C30       1.0  0.07402  0.20633  0.68783  1.0000
  H   H29       1.0  0.12467  0.18043  0.62973  1.0000
  H   H30       1.0  0.04907  0.18943  0.62273  1.0000
  N   N13       1.0  0.43244  0.16199  0.10387  1.0000
  C   C31       1.0  0.44237  0.26520  0.11887  1.0000
  C   C32       1.0  0.40979  0.17503  0.19437  1.0000
  H   H31       1.0  0.38983  0.14827  0.25457  1.0000
  N   N14       1.0  0.44756  0.31555  0.13247  1.0000
  C   C33       1.0  0.41365  0.22488  0.20557  1.0000
  H   H32       1.0  0.39673  0.23187  0.27237  1.0000
  C   C34       1.0  0.46612  0.25174  0.02467  1.0000
  H   H33       1.0  0.48623  0.27757  0.96307  1.0000
  C   C35       1.0  0.46033  0.20102  0.02117  1.0000
  H   H34       1.0  0.47723  0.19297  0.95607  1.0000
  H   H35       1.0  0.41683  0.31417  0.17717  1.0000
  N   N15       1.0  0.60379  0.50468  0.06280  1.0000
  C   C36       1.0  0.51051  0.40147  0.04780  1.0000
  C   C37       1.0  0.56810  0.49164  0.97230  1.0000
  H   H36       1.0  0.57490  0.51840  0.91210  1.0000
  N   N16       1.0  0.46535  0.35112  0.03420  1.0000
  C   C38       1.0  0.52211  0.44179  0.96110  1.0000
  H   H37       1.0  0.49820  0.43480  0.89430  1.0000
  C   C39       1.0  0.54772  0.41493  0.14200  1.0000
  H   H38       1.0  0.54200  0.38910  0.20360  1.0000
  C   C40       1.0  0.59265  0.46565  0.14550  1.0000
  H   H39       1.0  0.61760  0.47370  0.21060  1.0000
  H   H40       1.0  0.43600  0.35250  0.98950  1.0000
  N   N17       1.0  0.27046  0.83801  0.39613  1.0000
  C   C41       1.0  0.17718  0.73480  0.38113  1.0000
  C   C42       1.0  0.23477  0.82497  0.30563  1.0000
  H   H41       1.0  0.24157  0.85173  0.24543  1.0000
  N   N18       1.0  0.13202  0.68445  0.36753  1.0000
  C   C43       1.0  0.18878  0.77512  0.29443  1.0000
  H   H42       1.0  0.16487  0.76813  0.22763  1.0000
  C   C44       1.0  0.21439  0.74826  0.47533  1.0000
  H   H43       1.0  0.20867  0.72243  0.53693  1.0000
  C   C45       1.0  0.25932  0.79898  0.47883  1.0000
  H   H44       1.0  0.28427  0.80703  0.54393  1.0000
  H   H45       1.0  0.10267  0.68583  0.32283  1.0000
  N   N19       1.0  0.09911  0.49532  0.43720  1.0000
  C   C46       1.0  0.10904  0.59853  0.45220  1.0000
  C   C47       1.0  0.07646  0.50836  0.52770  1.0000
  H   H46       1.0  0.05650  0.48160  0.58790  1.0000
  N   N20       1.0  0.11423  0.64888  0.46580  1.0000
  C   C48       1.0  0.08032  0.55821  0.53890  1.0000
  H   H47       1.0  0.06340  0.56520  0.60570  1.0000
  C   C49       1.0  0.13279  0.58507  0.35800  1.0000
  H   H48       1.0  0.15290  0.61090  0.29640  1.0000
  C   C50       1.0  0.12700  0.53435  0.35450  1.0000
  H   H49       1.0  0.14390  0.52630  0.28940  1.0000
  H   H50       1.0  0.08350  0.64750  0.51050  1.0000
  N   N21       1.0  0.93712  0.17135  0.72947  1.0000
  C   C51       1.0  0.84384  0.06814  0.71447  1.0000
  C   C52       1.0  0.90143  0.15831  0.63897  1.0000
  H   H51       1.0  0.90823  0.18507  0.57877  1.0000
  N   N22       1.0  0.79868  0.01779  0.70087  1.0000
  C   C53       1.0  0.85544  0.10846  0.62777  1.0000
  H   H52       1.0  0.83153  0.10147  0.56097  1.0000
  C   C54       1.0  0.88105  0.08160  0.80867  1.0000
  H   H53       1.0  0.87533  0.05577  0.87027  1.0000
  C   C55       1.0  0.92598  0.13232  0.81217  1.0000
  H   H54       1.0  0.95093  0.14037  0.87727  1.0000
  H   H55       1.0  0.76933  0.01917  0.65617  1.0000
  N   N23       1.0  0.76578  0.82865  0.77053  1.0000
  C   C56       1.0  0.77571  0.93186  0.78553  1.0000
  C   C57       1.0  0.74313  0.84169  0.86103  1.0000
  H   H56       1.0  0.72317  0.81493  0.92123  1.0000
  N   N24       1.0  0.78090  0.98221  0.79913  1.0000
  C   C58       1.0  0.74699  0.89154  0.87223  1.0000
  H   H57       1.0  0.73007  0.89853  0.93903  1.0000
  C   C59       1.0  0.79946  0.91840  0.69133  1.0000
  H   H58       1.0  0.81957  0.94423  0.62973  1.0000
  C   C60       1.0  0.79367  0.86768  0.68783  1.0000
  H   H59       1.0  0.81057  0.85963  0.62273  1.0000
  H   H60       1.0  0.75017  0.98083  0.84383  1.0000
  H   H61       1.0  0.85173  0.24157  0.25457  1.0000
  H   H62       1.0  0.76813  0.16487  0.27237  1.0000
  H   H63       1.0  0.80703  0.28427  0.95607  1.0000
  N   N25       1.0  0.83801  0.27046  0.10387  1.0000
  C   C61       1.0  0.73480  0.17718  0.11887  1.0000
  C   C62       1.0  0.82497  0.23477  0.19437  1.0000
  H   H64       1.0  0.48160  0.05650  0.91210  1.0000
  N   N26       1.0  0.68445  0.13202  0.13247  1.0000
  C   C63       1.0  0.77512  0.18878  0.20557  1.0000
  C   C64       1.0  0.50836  0.07646  0.97230  1.0000
  C   C65       1.0  0.74826  0.21439  0.02467  1.0000
  H   H65       1.0  0.72243  0.20867  0.96307  1.0000
  C   C66       1.0  0.79898  0.25932  0.02117  1.0000
  N   N27       1.0  0.49532  0.09911  0.06280  1.0000
  C   C67       1.0  0.59853  0.10904  0.04780  1.0000
  N   N28       1.0  0.64888  0.11423  0.03420  1.0000
  C   C68       1.0  0.55821  0.08032  0.96110  1.0000
  H   H66       1.0  0.56520  0.06340  0.89430  1.0000
  C   C69       1.0  0.58507  0.13279  0.14200  1.0000
  H   H67       1.0  0.61090  0.15290  0.20360  1.0000
  C   C70       1.0  0.53435  0.12700  0.14550  1.0000
  H   H68       1.0  0.52630  0.14390  0.21060  1.0000
  H   H69       1.0  0.68583  0.10267  0.17717  1.0000
  H   H70       1.0  0.64750  0.08350  0.98950  1.0000
  N   N29       1.0  0.50468  0.60379  0.43720  1.0000
  C   C71       1.0  0.40147  0.51051  0.45220  1.0000
  C   C72       1.0  0.49164  0.56810  0.52770  1.0000
  H   H71       1.0  0.51840  0.57490  0.58790  1.0000
  N   N30       1.0  0.35112  0.46535  0.46580  1.0000
  C   C73       1.0  0.44179  0.52211  0.53890  1.0000
  H   H72       1.0  0.43480  0.49820  0.60570  1.0000
  C   C74       1.0  0.41493  0.54772  0.35800  1.0000
  H   H73       1.0  0.38910  0.54200  0.29640  1.0000
  C   C75       1.0  0.46565  0.59265  0.35450  1.0000
  H   H74       1.0  0.47370  0.61760  0.28940  1.0000
  H   H75       1.0  0.35250  0.43600  0.51050  1.0000
  N   N31       1.0  0.16199  0.43244  0.39613  1.0000
  C   C76       1.0  0.26520  0.44237  0.38113  1.0000
  C   C77       1.0  0.17503  0.40979  0.30563  1.0000
  H   H76       1.0  0.14827  0.38983  0.24543  1.0000
  N   N32       1.0  0.31555  0.44756  0.36753  1.0000
  C   C78       1.0  0.22488  0.41365  0.29443  1.0000
  H   H77       1.0  0.23187  0.39673  0.22763  1.0000
  C   C79       1.0  0.25174  0.46612  0.47533  1.0000
  H   H78       1.0  0.27757  0.48623  0.53693  1.0000
  C   C80       1.0  0.20102  0.46033  0.47883  1.0000
  H   H79       1.0  0.19297  0.47723  0.54393  1.0000
  H   H80       1.0  0.31417  0.41683  0.32283  1.0000
  H   H81       1.0  0.89853  0.73007  0.56097  1.0000
  C   C81       1.0  0.91840  0.79946  0.80867  1.0000
  H   H82       1.0  0.94423  0.81957  0.87027  1.0000
  C   C82       1.0  0.86768  0.79367  0.81217  1.0000
  H   H83       1.0  0.85963  0.81057  0.87727  1.0000
  H   H84       1.0  0.98083  0.75017  0.65617  1.0000
  N   N33       1.0  0.17135  0.93712  0.77053  1.0000
  C   C83       1.0  0.06814  0.84384  0.78553  1.0000
  C   C84       1.0  0.15831  0.90143  0.86103  1.0000
  H   H85       1.0  0.18507  0.90823  0.92123  1.0000
  N   N34       1.0  0.01779  0.79868  0.79913  1.0000
  C   C85       1.0  0.10846  0.85544  0.87223  1.0000
  H   H86       1.0  0.10147  0.83153  0.93903  1.0000
  C   C86       1.0  0.08160  0.88105  0.69133  1.0000
  H   H87       1.0  0.05577  0.87533  0.62973  1.0000
  C   C87       1.0  0.13232  0.92598  0.68783  1.0000
  H   H88       1.0  0.14037  0.95093  0.62273  1.0000
  H   H89       1.0  0.01917  0.76933  0.84383  1.0000
  N   N35       1.0  0.82865  0.76578  0.72947  1.0000
  C   C88       1.0  0.93186  0.77571  0.71447  1.0000
  C   C89       1.0  0.84169  0.74313  0.63897  1.0000
  H   H90       1.0  0.81493  0.72317  0.57877  1.0000
  N   N36       1.0  0.98221  0.78090  0.70087  1.0000
  C   C90       1.0  0.89154  0.74699  0.62777  1.0000
  N   N37       1.0  0.09911  0.60379  0.93720  1.0000
  C   C91       1.0  0.10904  0.51051  0.95220  1.0000
  C   C92       1.0  0.07646  0.56810  0.02770  1.0000
  H   H91       1.0  0.05650  0.57490  0.08790  1.0000
  N   N38       1.0  0.11423  0.46535  0.96580  1.0000
  C   C93       1.0  0.08032  0.52211  0.03890  1.0000
  H   H92       1.0  0.06340  0.49820  0.10570  1.0000
  C   C94       1.0  0.13279  0.54772  0.85800  1.0000
  H   H93       1.0  0.15290  0.54200  0.79640  1.0000
  C   C95       1.0  0.12700  0.59265  0.85450  1.0000
  H   H94       1.0  0.14390  0.61760  0.78940  1.0000
  H   H95       1.0  0.08350  0.43600  0.01050  1.0000
  N   N39       1.0  0.27046  0.43244  0.89613  1.0000
  C   C96       1.0  0.17718  0.44237  0.88113  1.0000
  C   C97       1.0  0.23477  0.40979  0.80563  1.0000
  H   H96       1.0  0.24157  0.38983  0.74543  1.0000
  N   N40       1.0  0.13202  0.44756  0.86753  1.0000
  C   C98       1.0  0.18878  0.41365  0.79443  1.0000
  H   H97       1.0  0.16487  0.39673  0.72763  1.0000
  C   C99       1.0  0.21439  0.46612  0.97533  1.0000
  H   H98       1.0  0.20867  0.48623  0.03693  1.0000
  C   C100      1.0  0.25932  0.46033  0.97883  1.0000
  H   H99       1.0  0.28427  0.47723  0.04393  1.0000
  H   H100      1.0  0.10267  0.41683  0.82283  1.0000
  N   N41       1.0  0.76578  0.93712  0.27053  1.0000
  C   C101      1.0  0.77571  0.84384  0.28553  1.0000
  C   C102      1.0  0.74313  0.90143  0.36103  1.0000
  H   H101      1.0  0.72317  0.90823  0.42123  1.0000
  N   N42       1.0  0.78090  0.79868  0.29913  1.0000
  C   C103      1.0  0.74699  0.85544  0.37223  1.0000
  H   H102      1.0  0.73007  0.83153  0.43903  1.0000
  C   C104      1.0  0.79946  0.88105  0.19133  1.0000
  H   H103      1.0  0.81957  0.87533  0.12973  1.0000
  C   C105      1.0  0.79367  0.92598  0.18783  1.0000
  H   H104      1.0  0.81057  0.95093  0.12273  1.0000
  H   H105      1.0  0.75017  0.76933  0.34383  1.0000
  N   N43       1.0  0.93712  0.76578  0.22947  1.0000
  C   C106      1.0  0.84384  0.77571  0.21447  1.0000
  C   C107      1.0  0.90143  0.74313  0.13897  1.0000
  H   H106      1.0  0.90823  0.72317  0.07877  1.0000
  N   N44       1.0  0.79868  0.78090  0.20087  1.0000
  C   C108      1.0  0.85544  0.74699  0.12777  1.0000
  H   H107      1.0  0.83153  0.73007  0.06097  1.0000
  C   C109      1.0  0.88105  0.79946  0.30867  1.0000
  H   H108      1.0  0.87533  0.81957  0.37027  1.0000
  C   C110      1.0  0.92598  0.79367  0.31217  1.0000
  H   H109      1.0  0.95093  0.81057  0.37727  1.0000
  H   H110      1.0  0.76933  0.75017  0.15617  1.0000
  N   N45       1.0  0.60379  0.09911  0.56280  1.0000
  C   C111      1.0  0.51051  0.10904  0.54780  1.0000
  C   C112      1.0  0.56810  0.07646  0.47230  1.0000
  H   H111      1.0  0.57490  0.05650  0.41210  1.0000
  N   N46       1.0  0.46535  0.11423  0.53420  1.0000
  C   C113      1.0  0.52211  0.08032  0.46110  1.0000
  H   H112      1.0  0.49820  0.06340  0.39430  1.0000
  C   C114      1.0  0.54772  0.13279  0.64200  1.0000
  H   H113      1.0  0.54200  0.15290  0.70360  1.0000
  C   C115      1.0  0.59265  0.12700  0.64550  1.0000
  H   H114      1.0  0.61760  0.14390  0.71060  1.0000
  H   H115      1.0  0.43600  0.08350  0.48950  1.0000
  N   N47       1.0  0.43244  0.27046  0.60387  1.0000
  C   C116      1.0  0.44237  0.17718  0.61887  1.0000
  C   C117      1.0  0.40979  0.23477  0.69437  1.0000
  H   H116      1.0  0.38983  0.24157  0.75457  1.0000
  N   N48       1.0  0.44756  0.13202  0.63247  1.0000
  C   C118      1.0  0.41365  0.18878  0.70557  1.0000
  H   H117      1.0  0.39673  0.16487  0.77237  1.0000
  C   C119      1.0  0.46612  0.21439  0.52467  1.0000
  H   H118      1.0  0.48623  0.20867  0.46307  1.0000
  C   C120      1.0  0.46033  0.25932  0.52117  1.0000
  H   H119      1.0  0.47723  0.28427  0.45607  1.0000
  H   H120      1.0  0.41683  0.10267  0.67717  1.0000
  N   N49       1.0  0.56756  0.83801  0.89613  1.0000
  C   C121      1.0  0.55763  0.73480  0.88113  1.0000
  C   C122      1.0  0.59021  0.82497  0.80563  1.0000
  H   H121      1.0  0.61017  0.85173  0.74543  1.0000
  N   N50       1.0  0.55244  0.68445  0.86753  1.0000
  C   C123      1.0  0.58635  0.77512  0.79443  1.0000
  H   H122      1.0  0.60327  0.76813  0.72763  1.0000
  C   C124      1.0  0.53388  0.74826  0.97533  1.0000
  H   H123      1.0  0.51377  0.72243  0.03693  1.0000
  C   C125      1.0  0.53967  0.79898  0.97883  1.0000
  H   H124      1.0  0.52277  0.80703  0.04393  1.0000
  H   H125      1.0  0.58317  0.68583  0.82283  1.0000
  N   N51       1.0  0.39621  0.49532  0.93720  1.0000
  C   C126      1.0  0.48949  0.59853  0.95220  1.0000
  C   C127      1.0  0.43190  0.50836  0.02770  1.0000
  H   H126      1.0  0.42510  0.48160  0.08790  1.0000
  N   N52       1.0  0.53465  0.64888  0.96580  1.0000
  C   C128      1.0  0.47789  0.55821  0.03890  1.0000
  H   H127      1.0  0.50180  0.56520  0.10570  1.0000
  C   C129      1.0  0.45228  0.58507  0.85800  1.0000
  H   H128      1.0  0.45800  0.61090  0.79640  1.0000
  C   C130      1.0  0.40735  0.53435  0.85450  1.0000
  H   H129      1.0  0.38240  0.52630  0.78940  1.0000
  H   H130      1.0  0.56400  0.64750  0.01050  1.0000
  N   N53       1.0  0.23422  0.17135  0.22947  1.0000
  C   C131      1.0  0.22429  0.06814  0.21447  1.0000
  C   C132      1.0  0.25687  0.15831  0.13897  1.0000
  H   H131      1.0  0.27683  0.18507  0.07877  1.0000
  N   N54       1.0  0.21910  0.01779  0.20087  1.0000
  C   C133      1.0  0.25301  0.10846  0.12777  1.0000
  H   H132      1.0  0.26993  0.10147  0.06097  1.0000
  C   C134      1.0  0.20054  0.08160  0.30867  1.0000
  H   H133      1.0  0.18043  0.05577  0.37027  1.0000
  C   C135      1.0  0.20633  0.13232  0.31217  1.0000
  H   H134      1.0  0.18943  0.14037  0.37727  1.0000
  H   H135      1.0  0.24983  0.01917  0.15617  1.0000
  N   N55       1.0  0.06288  0.82865  0.27053  1.0000
  C   C136      1.0  0.15616  0.93186  0.28553  1.0000
  C   C137      1.0  0.09857  0.84169  0.36103  1.0000
  H   H136      1.0  0.09177  0.81493  0.42123  1.0000
  N   N56       1.0  0.20132  0.98221  0.29913  1.0000
  C   C138      1.0  0.14456  0.89154  0.37223  1.0000
  H   H137      1.0  0.16847  0.89853  0.43903  1.0000
  C   C139      1.0  0.11895  0.91840  0.19133  1.0000
  H   H138      1.0  0.12467  0.94423  0.12973  1.0000
  C   C140      1.0  0.07402  0.86768  0.18783  1.0000
  H   H139      1.0  0.04907  0.85963  0.12273  1.0000
  H   H140      1.0  0.23067  0.98083  0.34383  1.0000
  N   N57       1.0  0.72954  0.16199  0.60387  1.0000
  C   C141      1.0  0.82282  0.26520  0.61887  1.0000
  C   C142      1.0  0.76523  0.17503  0.69437  1.0000
  H   H141      1.0  0.75843  0.14827  0.75457  1.0000
  N   N58       1.0  0.86798  0.31555  0.63247  1.0000
  C   C143      1.0  0.81122  0.22488  0.70557  1.0000
  H   H142      1.0  0.83513  0.23187  0.77237  1.0000
  C   C144      1.0  0.78561  0.25174  0.52467  1.0000
  H   H143      1.0  0.79133  0.27757  0.46307  1.0000
  C   C145      1.0  0.74068  0.20102  0.52117  1.0000
  H   H144      1.0  0.71573  0.19297  0.45607  1.0000
  H   H145      1.0  0.89733  0.31417  0.67717  1.0000
  N   N59       1.0  0.90089  0.50468  0.56280  1.0000
  C   C146      1.0  0.89096  0.40147  0.54780  1.0000
  C   C147      1.0  0.92354  0.49164  0.47230  1.0000
  H   H146      1.0  0.94350  0.51840  0.41210  1.0000
  N   N60       1.0  0.88577  0.35112  0.53420  1.0000
  C   C148      1.0  0.91968  0.44179  0.46110  1.0000
  H   H147      1.0  0.93660  0.43480  0.39430  1.0000
  C   C149      1.0  0.86721  0.41493  0.64200  1.0000
  H   H148      1.0  0.84710  0.38910  0.70360  1.0000
  C   C150      1.0  0.87300  0.46565  0.64550  1.0000
  H   H149      1.0  0.85610  0.47370  0.71060  1.0000
  H   H150      1.0  0.91650  0.35250  0.48950  1.0000
  N   N61       1.0  0.16199  0.72954  0.89613  1.0000
  C   C151      1.0  0.26520  0.82282  0.88113  1.0000
  C   C152      1.0  0.17503  0.76523  0.80563  1.0000
  H   H151      1.0  0.14827  0.75843  0.74543  1.0000
  N   N62       1.0  0.31555  0.86798  0.86753  1.0000
  C   C153      1.0  0.22488  0.81122  0.79443  1.0000
  H   H152      1.0  0.23187  0.83513  0.72763  1.0000
  C   C154      1.0  0.25174  0.78561  0.97533  1.0000
  H   H153      1.0  0.27757  0.79133  0.03693  1.0000
  C   C155      1.0  0.20102  0.74068  0.97883  1.0000
  H   H154      1.0  0.19297  0.71573  0.04393  1.0000
  H   H155      1.0  0.31417  0.89733  0.82283  1.0000
  N   N63       1.0  0.50468  0.90089  0.93720  1.0000
  C   C156      1.0  0.40147  0.89096  0.95220  1.0000
  C   C157      1.0  0.49164  0.92354  0.02770  1.0000
  H   H156      1.0  0.51840  0.94350  0.08790  1.0000
  N   N64       1.0  0.35112  0.88577  0.96580  1.0000
  C   C158      1.0  0.44179  0.91968  0.03890  1.0000
  H   H157      1.0  0.43480  0.93660  0.10570  1.0000
  C   C159      1.0  0.41493  0.86721  0.85800  1.0000
  H   H158      1.0  0.38910  0.84710  0.79640  1.0000
  C   C160      1.0  0.46565  0.87300  0.85450  1.0000
  H   H159      1.0  0.47370  0.85610  0.78940  1.0000
  H   H160      1.0  0.35250  0.91650  0.01050  1.0000
  C   C161      1.0  0.08160  0.20054  0.19133  1.0000
  H   H161      1.0  0.05577  0.18043  0.12973  1.0000
  C   C162      1.0  0.13232  0.20633  0.18783  1.0000
  H   H162      1.0  0.14037  0.18943  0.12273  1.0000
  H   H163      1.0  0.01917  0.24983  0.34383  1.0000
  N   N65       1.0  0.82865  0.06288  0.22947  1.0000
  C   C163      1.0  0.93186  0.15616  0.21447  1.0000
  C   C164      1.0  0.84169  0.09857  0.13897  1.0000
  H   H164      1.0  0.81493  0.09177  0.07877  1.0000
  N   N66       1.0  0.98221  0.20132  0.20087  1.0000
  C   C165      1.0  0.89154  0.14456  0.12777  1.0000
  H   H165      1.0  0.89853  0.16847  0.06097  1.0000
  C   C166      1.0  0.91840  0.11895  0.30867  1.0000
  H   H166      1.0  0.94423  0.12467  0.37027  1.0000
  C   C167      1.0  0.86768  0.07402  0.31217  1.0000
  H   H167      1.0  0.85963  0.04907  0.37727  1.0000
  H   H168      1.0  0.98083  0.23067  0.15617  1.0000
  N   N67       1.0  0.17135  0.23422  0.27053  1.0000
  C   C168      1.0  0.06814  0.22429  0.28553  1.0000
  C   C169      1.0  0.15831  0.25687  0.36103  1.0000
  H   H169      1.0  0.18507  0.27683  0.42123  1.0000
  N   N68       1.0  0.01779  0.21910  0.29913  1.0000
  C   C170      1.0  0.10846  0.25301  0.37223  1.0000
  H   H170      1.0  0.10147  0.26993  0.43903  1.0000
  N   N69       1.0  0.83801  0.56756  0.60387  1.0000
  C   C171      1.0  0.73480  0.55763  0.61887  1.0000
  C   C172      1.0  0.82497  0.59021  0.69437  1.0000
  H   H171      1.0  0.85173  0.61017  0.75457  1.0000
  N   N70       1.0  0.68445  0.55244  0.63247  1.0000
  C   C173      1.0  0.77512  0.58635  0.70557  1.0000
  H   H172      1.0  0.76813  0.60327  0.77237  1.0000
  C   C174      1.0  0.74826  0.53388  0.52467  1.0000
  H   H173      1.0  0.72243  0.51377  0.46307  1.0000
  C   C175      1.0  0.79898  0.53967  0.52117  1.0000
  H   H174      1.0  0.80703  0.52277  0.45607  1.0000
  H   H175      1.0  0.68583  0.58317  0.67717  1.0000
  N   N71       1.0  0.49532  0.39621  0.56280  1.0000
  C   C176      1.0  0.59853  0.48949  0.54780  1.0000
  C   C177      1.0  0.50836  0.43190  0.47230  1.0000
  H   H176      1.0  0.48160  0.42510  0.41210  1.0000
  N   N72       1.0  0.64888  0.53465  0.53420  1.0000
  C   C178      1.0  0.55821  0.47789  0.46110  1.0000
  H   H177      1.0  0.56520  0.50180  0.39430  1.0000
  C   C179      1.0  0.58507  0.45228  0.64200  1.0000
  H   H178      1.0  0.61090  0.45800  0.70360  1.0000
  C   C180      1.0  0.53435  0.40735  0.64550  1.0000
  H   H179      1.0  0.52630  0.38240  0.71060  1.0000
  H   H180      1.0  0.64750  0.56400  0.48950  1.0000
  O   O1        1.0  0.92972  0.34381  0.27200  1.0000
  O   O2        1.0  0.99620  0.38548  0.40850  1.0000
  O   O3        1.0  0.07028  0.41409  0.22800  1.0000
  O   O4        1.0  0.00380  0.38928  0.09150  1.0000
  C   C181      1.0  0.97877  0.37164  0.30240  1.0000
  C   C182      1.0  0.02123  0.39287  0.19760  1.0000
  O   O5        1.0  0.59639  0.67714  0.60533  1.0000
  O   O6        1.0  0.66287  0.71881  0.74183  1.0000
  O   O7        1.0  0.73695  0.74742  0.56133  1.0000
  O   O8        1.0  0.67047  0.72261  0.42483  1.0000
  C   C183      1.0  0.64544  0.70497  0.63573  1.0000
  C   C184      1.0  0.68790  0.72620  0.53093  1.0000
  O   O9        1.0  0.33713  0.05595  0.75817  1.0000
  C   C185      1.0  0.31210  0.03831  0.96907  1.0000
  C   C186      1.0  0.35456  0.05954  0.86427  1.0000
  O   O10       1.0  0.32953  0.05215  0.07517  1.0000
  O   O11       1.0  0.26305  0.01048  0.93867  1.0000
  O   O12       1.0  0.40361  0.08076  0.89467  1.0000
  C   C187      1.0  0.60713  0.62836  0.19760  1.0000
  O   O13       1.0  0.65619  0.58591  0.27200  1.0000
  O   O14       1.0  0.61452  0.61072  0.40850  1.0000
  O   O15       1.0  0.58591  0.65619  0.22800  1.0000
  O   O16       1.0  0.61072  0.61452  0.09150  1.0000
  C   C188      1.0  0.62836  0.60713  0.30240  1.0000
  O   O17       1.0  0.25258  0.98952  0.56133  1.0000
  O   O18       1.0  0.27739  0.94785  0.42483  1.0000
  C   C189      1.0  0.29503  0.94046  0.63573  1.0000
  C   C190      1.0  0.27380  0.96169  0.53093  1.0000
  O   O19       1.0  0.32286  0.91924  0.60533  1.0000
  O   O20       1.0  0.28119  0.94405  0.74183  1.0000
  O   O21       1.0  0.98952  0.25258  0.93867  1.0000
  O   O22       1.0  0.94785  0.27739  0.07517  1.0000
  O   O23       1.0  0.91924  0.32286  0.89467  1.0000
  O   O24       1.0  0.94405  0.28119  0.75817  1.0000
  C   C191      1.0  0.96169  0.27380  0.96907  1.0000
  C   C192      1.0  0.94046  0.29503  0.86427  1.0000
  O   O25       1.0  0.34381  0.92972  0.22800  1.0000
  C   C193      1.0  0.39287  0.02123  0.30240  1.0000
  O   O26       1.0  0.38548  0.99620  0.09150  1.0000
  C   C194      1.0  0.37164  0.97877  0.19760  1.0000
  O   O27       1.0  0.41409  0.07028  0.27200  1.0000
  O   O28       1.0  0.38928  0.00380  0.40850  1.0000
  C   C195      1.0  0.03831  0.31210  0.53093  1.0000
  O   O29       1.0  0.08076  0.40361  0.60533  1.0000
  O   O30       1.0  0.05595  0.33713  0.74183  1.0000
  O   O31       1.0  0.01048  0.26305  0.56133  1.0000
  C   C196      1.0  0.05954  0.35456  0.63573  1.0000
  O   O32       1.0  0.05215  0.32953  0.42483  1.0000
  C   C197      1.0  0.72620  0.68790  0.96907  1.0000
  O   O33       1.0  0.67714  0.59639  0.89467  1.0000
  O   O34       1.0  0.71881  0.66287  0.75817  1.0000
  C   C198      1.0  0.70497  0.64544  0.86427  1.0000
  O   O35       1.0  0.74742  0.73695  0.93867  1.0000
  O   O36       1.0  0.72261  0.67047  0.07517  1.0000
  O   O37       1.0  0.07028  0.65619  0.72800  1.0000
  O   O38       1.0  0.92972  0.58591  0.77200  1.0000
  O   O39       1.0  0.00380  0.61452  0.59150  1.0000
  O   O40       1.0  0.99620  0.61072  0.90850  1.0000
  C   C199      1.0  0.02123  0.62836  0.69760  1.0000
  C   C200      1.0  0.97877  0.60713  0.80240  1.0000
  O   O41       1.0  0.59639  0.91924  0.10533  1.0000
  C   C201      1.0  0.68790  0.96169  0.03093  1.0000
  C   C202      1.0  0.64544  0.94046  0.13573  1.0000
  O   O42       1.0  0.73695  0.98952  0.06133  1.0000
  O   O43       1.0  0.67047  0.94785  0.92483  1.0000
  O   O44       1.0  0.66287  0.94405  0.24183  1.0000
  O   O45       1.0  0.40361  0.32286  0.39467  1.0000
  O   O46       1.0  0.26305  0.25258  0.43867  1.0000
  O   O47       1.0  0.33713  0.28119  0.25817  1.0000
  O   O48       1.0  0.32953  0.27739  0.57517  1.0000
  C   C203      1.0  0.35456  0.29503  0.36427  1.0000
  C   C204      1.0  0.31210  0.27380  0.46907  1.0000
  O   O49       1.0  0.41409  0.34381  0.77200  1.0000
  O   O50       1.0  0.38928  0.38548  0.90850  1.0000
  C   C205      1.0  0.37164  0.39287  0.69760  1.0000
  C   C206      1.0  0.39287  0.37164  0.80240  1.0000
  O   O51       1.0  0.34381  0.41409  0.72800  1.0000
  O   O52       1.0  0.38548  0.38928  0.59150  1.0000
  O   O53       1.0  0.01048  0.74742  0.06133  1.0000
  O   O54       1.0  0.05215  0.72261  0.92483  1.0000
  O   O55       1.0  0.08076  0.67714  0.10533  1.0000
  O   O56       1.0  0.05595  0.71881  0.24183  1.0000
  C   C207      1.0  0.03831  0.72620  0.03093  1.0000
  C   C208      1.0  0.05954  0.70497  0.13573  1.0000
  O   O57       1.0  0.74742  0.01048  0.43867  1.0000
  O   O58       1.0  0.72261  0.05215  0.57517  1.0000
  C   C209      1.0  0.70497  0.05954  0.36427  1.0000
  C   C210      1.0  0.72620  0.03831  0.46907  1.0000
  O   O59       1.0  0.67714  0.08076  0.39467  1.0000
  O   O60       1.0  0.71881  0.05595  0.25817  1.0000
  C   C211      1.0  0.62836  0.02123  0.80240  1.0000
  O   O61       1.0  0.58591  0.92972  0.72800  1.0000
  O   O62       1.0  0.61072  0.99620  0.59150  1.0000
  C   C212      1.0  0.60713  0.97877  0.69760  1.0000
  O   O63       1.0  0.65619  0.07028  0.77200  1.0000
  O   O64       1.0  0.61452  0.00380  0.90850  1.0000
  O   O65       1.0  0.32286  0.40361  0.10533  1.0000
  C   C213      1.0  0.27380  0.31210  0.03093  1.0000
  O   O66       1.0  0.28119  0.33713  0.24183  1.0000
  C   C214      1.0  0.29503  0.35456  0.13573  1.0000
  O   O67       1.0  0.25258  0.26305  0.06133  1.0000
  O   O68       1.0  0.27739  0.32953  0.92483  1.0000
  C   C215      1.0  0.96169  0.68790  0.46907  1.0000
  O   O69       1.0  0.91924  0.59639  0.39467  1.0000
  O   O70       1.0  0.94405  0.66287  0.25817  1.0000
  C   C216      1.0  0.94046  0.64544  0.36427  1.0000
  O   O71       1.0  0.98952  0.73695  0.43867  1.0000
  O   O72       1.0  0.94785  0.67047  0.57517  1.0000
  Co  Co1       1.0  0.91829  0.33333  0.08333  1.0000
  Co  Co2       1.0  0.66667  0.58495  0.08333  1.0000
  Co  Co3       1.0  0.33333  0.91829  0.41667  1.0000
  Co  Co4       1.0  0.41505  0.08171  0.08333  1.0000
  Co  Co5       1.0  0.74838  0.74838  0.75000  1.0000
  Co  Co6       1.0  1.00000  0.25162  0.75000  1.0000
  Co  Co7       1.0  0.58495  0.66667  0.41667  1.0000
  Co  Co8       1.0  0.25162  0.00000  0.75000  1.0000
  Co  Co9       1.0  0.08171  0.41505  0.41667  1.0000
  Co  Co10      1.0  0.08171  0.66667  0.91667  1.0000
  Co  Co11      1.0  0.74838  0.00000  0.25000  1.0000
  Co  Co12      1.0  0.41505  0.33333  0.58333  1.0000
  Co  Co13      1.0  0.33333  0.41505  0.91667  1.0000
  Co  Co14      1.0  1.00000  0.74838  0.25000  1.0000
  Co  Co15      1.0  0.58495  0.91829  0.91667  1.0000
  Co  Co16      1.0  0.25162  0.25162  0.25000  1.0000
  Co  Co17      1.0  0.66667  0.08171  0.58333  1.0000
  Co  Co18      1.0  0.91829  0.58495  0.58333  1.0000
