data_image0
_chemical_formula_structural       C2H3N4C2H3N6C2H3N6C2H3C2H3N4C2H3N8C2H3CH3N4C3H3N4C2H3N4C2H3N4C2H3N5C2H3N7C2H3C2H3N4C2H3N8C2H6N4C4H3N4C2H3N4CH3N4C3H3N4C2H3N8C2H3C2H3N4C2H3N8C2H5N4C2HC2H3N4C2H3N4H3N4C4H3N4C2H3N7C2H3NC2H3N4C2H3N8C2H4N4C2H2C2H3N4C2H3N4H2N4C2HC2H3N4C2H3N6C2H3N2C2H3N4C2H3N8C2H3N4C2H3C2H3N4C2H3N4HN4C2H2C2H3N4C2H3N5C2H3N3C2H3N4C2H3N7C2H3N5C2H3C2H3N4C2H3N8C2H3C2H3N4C2H3N4C2H3N4Cu33NaCuNa12CuNa3Cu13
_chemical_formula_sum              "C128 H192 N256 Cu48 Na16"
_cell_length_a       16.378
_cell_length_b       16.378
_cell_length_c       27.376
_cell_angle_alpha    90
_cell_angle_beta     90
_cell_angle_gamma    90

_space_group_name_H-M_alt    "P 1"
_space_group_IT_number       1

loop_
  _space_group_symop_operation_xyz
  'x, y, z'

loop_
  _atom_site_type_symbol
  _atom_site_label
  _atom_site_symmetry_multiplicity
  _atom_site_fract_x
  _atom_site_fract_y
  _atom_site_fract_z
  _atom_site_occupancy
  C   C1        1.0  0.30143  0.59590  0.34262  1.0000
  C   C2        1.0  0.23990  0.57110  0.30506  1.0000
  H   H1        1.0  0.21820  0.61890  0.28950  1.0000
  H   H2        1.0  0.19650  0.54140  0.32050  1.0000
  H   H3        1.0  0.26560  0.53700  0.28100  1.0000
  N   N1        1.0  0.34245  0.54374  0.37065  1.0000
  N   N2        1.0  0.39057  0.59158  0.39872  1.0000
  N   N3        1.0  0.37972  0.66847  0.38760  1.0000
  N   N4        1.0  0.32276  0.67316  0.35195  1.0000
  C   C3        1.0  0.43148  0.63800  0.21241  1.0000
  C   C4        1.0  0.50290  0.58500  0.20021  1.0000
  H   H4        1.0  0.49260  0.55670  0.17010  1.0000
  H   H5        1.0  0.51120  0.54600  0.22590  1.0000
  H   H6        1.0  0.55090  0.61820  0.19680  1.0000
  N   N5        1.0  0.36583  0.64582  0.18515  1.0000
  N   N6        1.0  0.31730  0.69927  0.20876  1.0000
  N   N7        1.0  0.35487  0.72328  0.24885  1.0000
  N   N8        1.0  0.42699  0.68488  0.25217  1.0000
  N   N9        1.0  0.87972  0.16847  0.88760  1.0000
  N   N10       1.0  0.82276  0.17316  0.85195  1.0000
  C   C5        1.0  0.80143  0.09590  0.84262  1.0000
  C   C6        1.0  0.73990  0.07110  0.80506  1.0000
  H   H7        1.0  0.71820  0.11890  0.78950  1.0000
  H   H8        1.0  0.69650  0.04140  0.82050  1.0000
  H   H9        1.0  0.76560  0.03700  0.78100  1.0000
  N   N11       1.0  0.84245  0.04374  0.87065  1.0000
  N   N12       1.0  0.89057  0.09158  0.89872  1.0000
  N   N13       1.0  0.86583  0.14582  0.68515  1.0000
  N   N14       1.0  0.81730  0.19927  0.70876  1.0000
  N   N15       1.0  0.85487  0.22328  0.74885  1.0000
  N   N16       1.0  0.92699  0.18488  0.75217  1.0000
  C   C7        1.0  0.93148  0.13800  0.71241  1.0000
  C   C8        1.0  0.00290  0.08500  0.70021  1.0000
  H   H10       1.0  0.99260  0.05670  0.67010  1.0000
  H   H11       1.0  0.01120  0.04600  0.72590  1.0000
  H   H12       1.0  0.05090  0.11820  0.69680  1.0000
  C   C9        1.0  0.19857  0.40410  0.84262  1.0000
  C   C10       1.0  0.26010  0.42890  0.80506  1.0000
  H   H13       1.0  0.28180  0.38110  0.78950  1.0000
  H   H14       1.0  0.30350  0.45860  0.82050  1.0000
  H   H15       1.0  0.23440  0.46300  0.78100  1.0000
  N   N17       1.0  0.15755  0.45626  0.87065  1.0000
  N   N18       1.0  0.10943  0.40842  0.89872  1.0000
  N   N19       1.0  0.12028  0.33153  0.88760  1.0000
  N   N20       1.0  0.17724  0.32684  0.85195  1.0000
  C   C11       1.0  0.06852  0.36200  0.71241  1.0000
  C   C12       1.0  0.99710  0.41500  0.70021  1.0000
  H   H16       1.0  0.00740  0.44330  0.67010  1.0000
  H   H17       1.0  0.98880  0.45400  0.72590  1.0000
  H   H18       1.0  0.94910  0.38180  0.69680  1.0000
  N   N21       1.0  0.13417  0.35418  0.68515  1.0000
  N   N22       1.0  0.18270  0.30073  0.70876  1.0000
  N   N23       1.0  0.14513  0.27672  0.74885  1.0000
  N   N24       1.0  0.07301  0.31512  0.75217  1.0000
  N   N25       1.0  0.65755  0.95626  0.37065  1.0000
  N   N26       1.0  0.60943  0.90842  0.39872  1.0000
  N   N27       1.0  0.62028  0.83153  0.38760  1.0000
  N   N28       1.0  0.67724  0.82684  0.35195  1.0000
  C   C13       1.0  0.69857  0.90410  0.34262  1.0000
  C   C14       1.0  0.76010  0.92890  0.30506  1.0000
  H   H19       1.0  0.78180  0.88110  0.28950  1.0000
  H   H20       1.0  0.80350  0.95860  0.32050  1.0000
  H   H21       1.0  0.73440  0.96300  0.28100  1.0000
  C   C15       1.0  0.49710  0.91500  0.20021  1.0000
  H   H22       1.0  0.50740  0.94330  0.17010  1.0000
  H   H23       1.0  0.48880  0.95400  0.22590  1.0000
  H   H24       1.0  0.44910  0.88180  0.19680  1.0000
  N   N29       1.0  0.63417  0.85418  0.18515  1.0000
  N   N30       1.0  0.68270  0.80073  0.20876  1.0000
  N   N31       1.0  0.64513  0.77672  0.24885  1.0000
  N   N32       1.0  0.57301  0.81512  0.25217  1.0000
  C   C16       1.0  0.56852  0.86200  0.21241  1.0000
  C   C17       1.0  0.65410  0.05143  0.59262  1.0000
  C   C18       1.0  0.67890  0.98990  0.55506  1.0000
  H   H25       1.0  0.63110  0.96820  0.53950  1.0000
  H   H26       1.0  0.70860  0.94650  0.57050  1.0000
  H   H27       1.0  0.71300  0.01560  0.53100  1.0000
  N   N33       1.0  0.70626  0.09245  0.62065  1.0000
  N   N34       1.0  0.65842  0.14057  0.64872  1.0000
  N   N35       1.0  0.58153  0.12972  0.63760  1.0000
  N   N36       1.0  0.57684  0.07276  0.60195  1.0000
  C   C19       1.0  0.61200  0.18148  0.46241  1.0000
  C   C20       1.0  0.66500  0.25290  0.45021  1.0000
  H   H28       1.0  0.69330  0.24260  0.42010  1.0000
  H   H29       1.0  0.70400  0.26120  0.47590  1.0000
  H   H30       1.0  0.63180  0.30090  0.44680  1.0000
  N   N37       1.0  0.60418  0.11583  0.43515  1.0000
  N   N38       1.0  0.55073  0.06730  0.45876  1.0000
  N   N39       1.0  0.52672  0.10487  0.49885  1.0000
  N   N40       1.0  0.56512  0.17699  0.50217  1.0000
  C   C21       1.0  0.15410  0.55143  0.09262  1.0000
  C   C22       1.0  0.17890  0.48990  0.05506  1.0000
  H   H31       1.0  0.13110  0.46820  0.03950  1.0000
  H   H32       1.0  0.20860  0.44650  0.07050  1.0000
  H   H33       1.0  0.21300  0.51560  0.03100  1.0000
  N   N41       1.0  0.20626  0.59245  0.12065  1.0000
  N   N42       1.0  0.15842  0.64057  0.14872  1.0000
  N   N43       1.0  0.08153  0.62972  0.13760  1.0000
  N   N44       1.0  0.07684  0.57276  0.10195  1.0000
  C   C23       1.0  0.11200  0.68148  0.96241  1.0000
  C   C24       1.0  0.16500  0.75290  0.95021  1.0000
  H   H34       1.0  0.19330  0.74260  0.92010  1.0000
  H   H35       1.0  0.20400  0.76120  0.97590  1.0000
  H   H36       1.0  0.13180  0.80090  0.94680  1.0000
  N   N45       1.0  0.10418  0.61583  0.93515  1.0000
  N   N46       1.0  0.05073  0.56730  0.95876  1.0000
  N   N47       1.0  0.02672  0.60487  0.99885  1.0000
  N   N48       1.0  0.06512  0.67699  0.00217  1.0000
  N   N49       1.0  0.92316  0.92724  0.10195  1.0000
  C   C25       1.0  0.84590  0.94857  0.09262  1.0000
  C   C26       1.0  0.82110  0.01010  0.05506  1.0000
  H   H37       1.0  0.86890  0.03180  0.03950  1.0000
  H   H38       1.0  0.79140  0.05350  0.07050  1.0000
  H   H39       1.0  0.78700  0.98440  0.03100  1.0000
  N   N50       1.0  0.79374  0.90755  0.12065  1.0000
  N   N51       1.0  0.84158  0.85943  0.14872  1.0000
  N   N52       1.0  0.91847  0.87028  0.13760  1.0000
  N   N53       1.0  0.89582  0.88417  0.93515  1.0000
  N   N54       1.0  0.94927  0.93270  0.95876  1.0000
  N   N55       1.0  0.97328  0.89513  0.99885  1.0000
  N   N56       1.0  0.93488  0.82301  0.00217  1.0000
  C   C27       1.0  0.88800  0.81852  0.96241  1.0000
  C   C28       1.0  0.83500  0.74710  0.95021  1.0000
  H   H40       1.0  0.80670  0.75740  0.92010  1.0000
  H   H41       1.0  0.79600  0.73880  0.97590  1.0000
  H   H42       1.0  0.86820  0.69910  0.94680  1.0000
  C   C29       1.0  0.34590  0.44857  0.59262  1.0000
  C   C30       1.0  0.32110  0.51010  0.55506  1.0000
  H   H43       1.0  0.36890  0.53180  0.53950  1.0000
  H   H44       1.0  0.29140  0.55350  0.57050  1.0000
  H   H45       1.0  0.28700  0.48440  0.53100  1.0000
  N   N57       1.0  0.29374  0.40755  0.62065  1.0000
  N   N58       1.0  0.34158  0.35943  0.64872  1.0000
  N   N59       1.0  0.41847  0.37028  0.63760  1.0000
  N   N60       1.0  0.42316  0.42724  0.60195  1.0000
  C   C31       1.0  0.38800  0.31852  0.46241  1.0000
  C   C32       1.0  0.33500  0.24710  0.45021  1.0000
  H   H46       1.0  0.30670  0.25740  0.42010  1.0000
  H   H47       1.0  0.29600  0.23880  0.47590  1.0000
  H   H48       1.0  0.36820  0.19910  0.44680  1.0000
  N   N61       1.0  0.39582  0.38417  0.43515  1.0000
  N   N62       1.0  0.44927  0.43270  0.45876  1.0000
  N   N63       1.0  0.47328  0.39513  0.49885  1.0000
  N   N64       1.0  0.43488  0.32301  0.50217  1.0000
  N   N65       1.0  0.15755  0.54374  0.62935  1.0000
  N   N66       1.0  0.10943  0.59158  0.60128  1.0000
  N   N67       1.0  0.12028  0.66847  0.61240  1.0000
  N   N68       1.0  0.17724  0.67316  0.64805  1.0000
  C   C33       1.0  0.19857  0.59590  0.65738  1.0000
  C   C34       1.0  0.26010  0.57110  0.69494  1.0000
  H   H49       1.0  0.28180  0.61890  0.71050  1.0000
  H   H50       1.0  0.30350  0.54140  0.67950  1.0000
  H   H51       1.0  0.23440  0.53700  0.71900  1.0000
  H   H52       1.0  0.00740  0.55670  0.82990  1.0000
  H   H53       1.0  0.98880  0.54600  0.77410  1.0000
  H   H54       1.0  0.94910  0.61820  0.80320  1.0000
  N   N69       1.0  0.13417  0.64582  0.81485  1.0000
  N   N70       1.0  0.18270  0.69927  0.79124  1.0000
  N   N71       1.0  0.14513  0.72328  0.75115  1.0000
  N   N72       1.0  0.07301  0.68488  0.74783  1.0000
  C   C35       1.0  0.06852  0.63800  0.78759  1.0000
  C   C36       1.0  0.99710  0.58500  0.79979  1.0000
  C   C37       1.0  0.69857  0.09590  0.15738  1.0000
  C   C38       1.0  0.76010  0.07110  0.19494  1.0000
  H   H55       1.0  0.78180  0.11890  0.21050  1.0000
  H   H56       1.0  0.80350  0.04140  0.17950  1.0000
  H   H57       1.0  0.73440  0.03700  0.21900  1.0000
  N   N73       1.0  0.65755  0.04374  0.12935  1.0000
  N   N74       1.0  0.60943  0.09158  0.10128  1.0000
  N   N75       1.0  0.62028  0.16847  0.11240  1.0000
  N   N76       1.0  0.67724  0.17316  0.14805  1.0000
  C   C39       1.0  0.56852  0.13800  0.28759  1.0000
  C   C40       1.0  0.49710  0.08500  0.29979  1.0000
  H   H58       1.0  0.50740  0.05670  0.32990  1.0000
  H   H59       1.0  0.48880  0.04600  0.27410  1.0000
  H   H60       1.0  0.44910  0.11820  0.30320  1.0000
  N   N77       1.0  0.63417  0.14582  0.31485  1.0000
  N   N78       1.0  0.68270  0.19927  0.29124  1.0000
  N   N79       1.0  0.64513  0.22328  0.25115  1.0000
  N   N80       1.0  0.57301  0.18488  0.24783  1.0000
  C   C41       1.0  0.23990  0.42890  0.19494  1.0000
  H   H61       1.0  0.21820  0.38110  0.21050  1.0000
  H   H62       1.0  0.19650  0.45860  0.17950  1.0000
  H   H63       1.0  0.26560  0.46300  0.21900  1.0000
  N   N81       1.0  0.34245  0.45626  0.12935  1.0000
  N   N82       1.0  0.39057  0.40842  0.10128  1.0000
  N   N83       1.0  0.37972  0.33153  0.11240  1.0000
  N   N84       1.0  0.32276  0.32684  0.14805  1.0000
  C   C42       1.0  0.30143  0.40410  0.15738  1.0000
  C   C43       1.0  0.43148  0.36200  0.28759  1.0000
  C   C44       1.0  0.50290  0.41500  0.29979  1.0000
  H   H64       1.0  0.49260  0.44330  0.32990  1.0000
  H   H65       1.0  0.51120  0.45400  0.27410  1.0000
  H   H66       1.0  0.55090  0.38180  0.30320  1.0000
  N   N85       1.0  0.36583  0.35418  0.31485  1.0000
  N   N86       1.0  0.31730  0.30073  0.29124  1.0000
  N   N87       1.0  0.35487  0.27672  0.25115  1.0000
  N   N88       1.0  0.42699  0.31512  0.24783  1.0000
  C   C45       1.0  0.80143  0.90410  0.65738  1.0000
  C   C46       1.0  0.73990  0.92890  0.69494  1.0000
  H   H67       1.0  0.71820  0.88110  0.71050  1.0000
  H   H68       1.0  0.69650  0.95860  0.67950  1.0000
  H   H69       1.0  0.76560  0.96300  0.71900  1.0000
  N   N89       1.0  0.84245  0.95626  0.62935  1.0000
  N   N90       1.0  0.89057  0.90842  0.60128  1.0000
  N   N91       1.0  0.87972  0.83153  0.61240  1.0000
  N   N92       1.0  0.82276  0.82684  0.64805  1.0000
  N   N93       1.0  0.86583  0.85418  0.81485  1.0000
  N   N94       1.0  0.81730  0.80073  0.79124  1.0000
  N   N95       1.0  0.85487  0.77672  0.75115  1.0000
  N   N96       1.0  0.92699  0.81512  0.74783  1.0000
  C   C47       1.0  0.93148  0.86200  0.78759  1.0000
  C   C48       1.0  0.00290  0.91500  0.79979  1.0000
  H   H70       1.0  0.99260  0.94330  0.82990  1.0000
  H   H71       1.0  0.01120  0.95400  0.77410  1.0000
  H   H72       1.0  0.05090  0.88180  0.80320  1.0000
  C   C49       1.0  0.84590  0.05143  0.40738  1.0000
  C   C50       1.0  0.82110  0.98990  0.44494  1.0000
  H   H73       1.0  0.86890  0.96820  0.46050  1.0000
  H   H74       1.0  0.79140  0.94650  0.42950  1.0000
  H   H75       1.0  0.78700  0.01560  0.46900  1.0000
  N   N97       1.0  0.79374  0.09245  0.37935  1.0000
  N   N98       1.0  0.84158  0.14057  0.35128  1.0000
  N   N99       1.0  0.91847  0.12972  0.36240  1.0000
  N   N100      1.0  0.92316  0.07276  0.39805  1.0000
  C   C51       1.0  0.88800  0.18148  0.53759  1.0000
  C   C52       1.0  0.83500  0.25290  0.54979  1.0000
  H   H76       1.0  0.80670  0.24260  0.57990  1.0000
  H   H77       1.0  0.79600  0.26120  0.52410  1.0000
  H   H78       1.0  0.86820  0.30090  0.55320  1.0000
  N   N101      1.0  0.89582  0.11583  0.56485  1.0000
  N   N102      1.0  0.94927  0.06730  0.54124  1.0000
  N   N103      1.0  0.97328  0.10487  0.50115  1.0000
  N   N104      1.0  0.93488  0.17699  0.49783  1.0000
  N   N105      1.0  0.29374  0.59245  0.87935  1.0000
  N   N106      1.0  0.34158  0.64057  0.85128  1.0000
  N   N107      1.0  0.41847  0.62972  0.86240  1.0000
  N   N108      1.0  0.42316  0.57276  0.89805  1.0000
  C   C53       1.0  0.34590  0.55143  0.90738  1.0000
  C   C54       1.0  0.32110  0.48990  0.94494  1.0000
  H   H79       1.0  0.36890  0.46820  0.96050  1.0000
  H   H80       1.0  0.29140  0.44650  0.92950  1.0000
  H   H81       1.0  0.28700  0.51560  0.96900  1.0000
  H   H82       1.0  0.29600  0.76120  0.02410  1.0000
  H   H83       1.0  0.36820  0.80090  0.05320  1.0000
  N   N109      1.0  0.39582  0.61583  0.06485  1.0000
  N   N110      1.0  0.44927  0.56730  0.04124  1.0000
  N   N111      1.0  0.47328  0.60487  0.00115  1.0000
  N   N112      1.0  0.43488  0.67699  0.99783  1.0000
  C   C55       1.0  0.38800  0.68148  0.03759  1.0000
  C   C56       1.0  0.33500  0.75290  0.04979  1.0000
  H   H84       1.0  0.30670  0.74260  0.07990  1.0000
  C   C57       1.0  0.65410  0.94857  0.90738  1.0000
  C   C58       1.0  0.67890  0.01010  0.94494  1.0000
  H   H85       1.0  0.63110  0.03180  0.96050  1.0000
  H   H86       1.0  0.70860  0.05350  0.92950  1.0000
  H   H87       1.0  0.71300  0.98440  0.96900  1.0000
  N   N113      1.0  0.70626  0.90755  0.87935  1.0000
  N   N114      1.0  0.65842  0.85943  0.85128  1.0000
  N   N115      1.0  0.58153  0.87028  0.86240  1.0000
  N   N116      1.0  0.57684  0.92724  0.89805  1.0000
  C   C59       1.0  0.61200  0.81852  0.03759  1.0000
  C   C60       1.0  0.66500  0.74710  0.04979  1.0000
  H   H88       1.0  0.69330  0.75740  0.07990  1.0000
  H   H89       1.0  0.70400  0.73880  0.02410  1.0000
  H   H90       1.0  0.63180  0.69910  0.05320  1.0000
  N   N117      1.0  0.60418  0.88417  0.06485  1.0000
  N   N118      1.0  0.55073  0.93270  0.04124  1.0000
  N   N119      1.0  0.52672  0.89513  0.00115  1.0000
  N   N120      1.0  0.56512  0.82301  0.99783  1.0000
  H   H91       1.0  0.13110  0.53180  0.46050  1.0000
  H   H92       1.0  0.20860  0.55350  0.42950  1.0000
  H   H93       1.0  0.21300  0.48440  0.46900  1.0000
  N   N121      1.0  0.20626  0.40755  0.37935  1.0000
  N   N122      1.0  0.15842  0.35943  0.35128  1.0000
  N   N123      1.0  0.08153  0.37028  0.36240  1.0000
  N   N124      1.0  0.07684  0.42724  0.39805  1.0000
  C   C61       1.0  0.15410  0.44857  0.40738  1.0000
  C   C62       1.0  0.17890  0.51010  0.44494  1.0000
  C   C63       1.0  0.11200  0.31852  0.53759  1.0000
  C   C64       1.0  0.16500  0.24710  0.54979  1.0000
  H   H94       1.0  0.19330  0.25740  0.57990  1.0000
  H   H95       1.0  0.20400  0.23880  0.52410  1.0000
  H   H96       1.0  0.13180  0.19910  0.55320  1.0000
  N   N125      1.0  0.10418  0.38417  0.56485  1.0000
  N   N126      1.0  0.05073  0.43270  0.54124  1.0000
  N   N127      1.0  0.02672  0.39513  0.50115  1.0000
  N   N128      1.0  0.06512  0.32301  0.49783  1.0000
  C   C65       1.0  0.69857  0.40410  0.65738  1.0000
  C   C66       1.0  0.76010  0.42890  0.69494  1.0000
  H   H97       1.0  0.78180  0.38110  0.71050  1.0000
  H   H98       1.0  0.80350  0.45860  0.67950  1.0000
  H   H99       1.0  0.73440  0.46300  0.71900  1.0000
  N   N129      1.0  0.65755  0.45626  0.62935  1.0000
  N   N130      1.0  0.60943  0.40842  0.60128  1.0000
  N   N131      1.0  0.62028  0.33153  0.61240  1.0000
  N   N132      1.0  0.67724  0.32684  0.64805  1.0000
  N   N133      1.0  0.68270  0.30073  0.79124  1.0000
  N   N134      1.0  0.64513  0.27672  0.75115  1.0000
  N   N135      1.0  0.57301  0.31512  0.74783  1.0000
  C   C67       1.0  0.56852  0.36200  0.78759  1.0000
  C   C68       1.0  0.49710  0.41500  0.79979  1.0000
  H   H100      1.0  0.50740  0.44330  0.82990  1.0000
  H   H101      1.0  0.48880  0.45400  0.77410  1.0000
  H   H102      1.0  0.44910  0.38180  0.80320  1.0000
  N   N136      1.0  0.63417  0.35418  0.81485  1.0000
  C   C69       1.0  0.19857  0.90410  0.15738  1.0000
  C   C70       1.0  0.26010  0.92890  0.19494  1.0000
  H   H103      1.0  0.28180  0.88110  0.21050  1.0000
  H   H104      1.0  0.30350  0.95860  0.17950  1.0000
  H   H105      1.0  0.23440  0.96300  0.21900  1.0000
  N   N137      1.0  0.15755  0.95626  0.12935  1.0000
  N   N138      1.0  0.10943  0.90842  0.10128  1.0000
  N   N139      1.0  0.12028  0.83153  0.11240  1.0000
  N   N140      1.0  0.17724  0.82684  0.14805  1.0000
  C   C71       1.0  0.06852  0.86200  0.28759  1.0000
  C   C72       1.0  0.99710  0.91500  0.29979  1.0000
  H   H106      1.0  0.00740  0.94330  0.32990  1.0000
  H   H107      1.0  0.98880  0.95400  0.27410  1.0000
  H   H108      1.0  0.94910  0.88180  0.30320  1.0000
  N   N141      1.0  0.13417  0.85418  0.31485  1.0000
  N   N142      1.0  0.18270  0.80073  0.29124  1.0000
  N   N143      1.0  0.14513  0.77672  0.25115  1.0000
  N   N144      1.0  0.07301  0.81512  0.24783  1.0000
  N   N145      1.0  0.84245  0.54374  0.12935  1.0000
  N   N146      1.0  0.89057  0.59158  0.10128  1.0000
  N   N147      1.0  0.87972  0.66847  0.11240  1.0000
  N   N148      1.0  0.82276  0.67316  0.14805  1.0000
  C   C73       1.0  0.80143  0.59590  0.15738  1.0000
  C   C74       1.0  0.73990  0.57110  0.19494  1.0000
  H   H109      1.0  0.71820  0.61890  0.21050  1.0000
  H   H110      1.0  0.69650  0.54140  0.17950  1.0000
  H   H111      1.0  0.76560  0.53700  0.21900  1.0000
  H   H112      1.0  0.05090  0.61820  0.30320  1.0000
  N   N149      1.0  0.86583  0.64582  0.31485  1.0000
  N   N150      1.0  0.81730  0.69927  0.29124  1.0000
  N   N151      1.0  0.85487  0.72328  0.25115  1.0000
  N   N152      1.0  0.92699  0.68488  0.24783  1.0000
  C   C75       1.0  0.93148  0.63800  0.28759  1.0000
  C   C76       1.0  0.00290  0.58500  0.29979  1.0000
  H   H113      1.0  0.99260  0.55670  0.32990  1.0000
  H   H114      1.0  0.01120  0.54600  0.27410  1.0000
  C   C77       1.0  0.30143  0.09590  0.65738  1.0000
  C   C78       1.0  0.23990  0.07110  0.69494  1.0000
  H   H115      1.0  0.21820  0.11890  0.71050  1.0000
  H   H116      1.0  0.19650  0.04140  0.67950  1.0000
  H   H117      1.0  0.26560  0.03700  0.71900  1.0000
  N   N153      1.0  0.34245  0.04374  0.62935  1.0000
  N   N154      1.0  0.39057  0.09158  0.60128  1.0000
  N   N155      1.0  0.37972  0.16847  0.61240  1.0000
  N   N156      1.0  0.32276  0.17316  0.64805  1.0000
  C   C79       1.0  0.43148  0.13800  0.78759  1.0000
  C   C80       1.0  0.50290  0.08500  0.79979  1.0000
  H   H118      1.0  0.49260  0.05670  0.82990  1.0000
  H   H119      1.0  0.51120  0.04600  0.77410  1.0000
  H   H120      1.0  0.55090  0.11820  0.80320  1.0000
  N   N157      1.0  0.36583  0.14582  0.81485  1.0000
  N   N158      1.0  0.31730  0.19927  0.79124  1.0000
  N   N159      1.0  0.35487  0.22328  0.75115  1.0000
  N   N160      1.0  0.42699  0.18488  0.74783  1.0000
  H   H121      1.0  0.29140  0.05350  0.42950  1.0000
  H   H122      1.0  0.28700  0.98440  0.46900  1.0000
  N   N161      1.0  0.29374  0.90755  0.37935  1.0000
  N   N162      1.0  0.34158  0.85943  0.35128  1.0000
  N   N163      1.0  0.41847  0.87028  0.36240  1.0000
  N   N164      1.0  0.42316  0.92724  0.39805  1.0000
  C   C81       1.0  0.34590  0.94857  0.40738  1.0000
  C   C82       1.0  0.32110  0.01010  0.44494  1.0000
  H   H123      1.0  0.36890  0.03180  0.46050  1.0000
  C   C83       1.0  0.38800  0.81852  0.53759  1.0000
  C   C84       1.0  0.33500  0.74710  0.54979  1.0000
  H   H124      1.0  0.30670  0.75740  0.57990  1.0000
  H   H125      1.0  0.29600  0.73880  0.52410  1.0000
  H   H126      1.0  0.36820  0.69910  0.55320  1.0000
  N   N165      1.0  0.39582  0.88417  0.56485  1.0000
  N   N166      1.0  0.44927  0.93270  0.54124  1.0000
  N   N167      1.0  0.47328  0.89513  0.50115  1.0000
  N   N168      1.0  0.43488  0.82301  0.49783  1.0000
  C   C85       1.0  0.84590  0.44857  0.90738  1.0000
  C   C86       1.0  0.82110  0.51010  0.94494  1.0000
  H   H127      1.0  0.86890  0.53180  0.96050  1.0000
  H   H128      1.0  0.79140  0.55350  0.92950  1.0000
  H   H129      1.0  0.78700  0.48440  0.96900  1.0000
  N   N169      1.0  0.79374  0.40755  0.87935  1.0000
  N   N170      1.0  0.84158  0.35943  0.85128  1.0000
  N   N171      1.0  0.91847  0.37028  0.86240  1.0000
  N   N172      1.0  0.92316  0.42724  0.89805  1.0000
  N   N173      1.0  0.97328  0.39513  0.00115  1.0000
  N   N174      1.0  0.93488  0.32301  0.99783  1.0000
  C   C87       1.0  0.88800  0.31852  0.03759  1.0000
  C   C88       1.0  0.83500  0.24710  0.04979  1.0000
  H   H130      1.0  0.80670  0.25740  0.07990  1.0000
  H   H131      1.0  0.79600  0.23880  0.02410  1.0000
  H   H132      1.0  0.86820  0.19910  0.05320  1.0000
  N   N175      1.0  0.89582  0.38417  0.06485  1.0000
  N   N176      1.0  0.94927  0.43270  0.04124  1.0000
  C   C89       1.0  0.15410  0.05143  0.90738  1.0000
  C   C90       1.0  0.17890  0.98990  0.94494  1.0000
  H   H133      1.0  0.13110  0.96820  0.96050  1.0000
  H   H134      1.0  0.20860  0.94650  0.92950  1.0000
  H   H135      1.0  0.21300  0.01560  0.96900  1.0000
  N   N177      1.0  0.20626  0.09245  0.87935  1.0000
  N   N178      1.0  0.15842  0.14057  0.85128  1.0000
  N   N179      1.0  0.08153  0.12972  0.86240  1.0000
  N   N180      1.0  0.07684  0.07276  0.89805  1.0000
  C   C91       1.0  0.11200  0.18148  0.03759  1.0000
  C   C92       1.0  0.16500  0.25290  0.04979  1.0000
  H   H136      1.0  0.19330  0.24260  0.07990  1.0000
  H   H137      1.0  0.20400  0.26120  0.02410  1.0000
  H   H138      1.0  0.13180  0.30090  0.05320  1.0000
  N   N181      1.0  0.10418  0.11583  0.06485  1.0000
  N   N182      1.0  0.05073  0.06730  0.04124  1.0000
  N   N183      1.0  0.02672  0.10487  0.00115  1.0000
  N   N184      1.0  0.06512  0.17699  0.99783  1.0000
  N   N185      1.0  0.70626  0.59245  0.37935  1.0000
  N   N186      1.0  0.65842  0.64057  0.35128  1.0000
  N   N187      1.0  0.58153  0.62972  0.36240  1.0000
  N   N188      1.0  0.57684  0.57276  0.39805  1.0000
  C   C93       1.0  0.65410  0.55143  0.40738  1.0000
  C   C94       1.0  0.67890  0.48990  0.44494  1.0000
  H   H139      1.0  0.63110  0.46820  0.46050  1.0000
  H   H140      1.0  0.70860  0.44650  0.42950  1.0000
  H   H141      1.0  0.71300  0.51560  0.46900  1.0000
  N   N189      1.0  0.60418  0.61583  0.56485  1.0000
  N   N190      1.0  0.55073  0.56730  0.54124  1.0000
  N   N191      1.0  0.52672  0.60487  0.50115  1.0000
  N   N192      1.0  0.56512  0.67699  0.49783  1.0000
  C   C95       1.0  0.61200  0.68148  0.53759  1.0000
  C   C96       1.0  0.66500  0.75290  0.54979  1.0000
  H   H142      1.0  0.69330  0.74260  0.57990  1.0000
  H   H143      1.0  0.70400  0.76120  0.52410  1.0000
  H   H144      1.0  0.63180  0.80090  0.55320  1.0000
  C   C97       1.0  0.80143  0.40410  0.34262  1.0000
  C   C98       1.0  0.73990  0.42890  0.30506  1.0000
  H   H145      1.0  0.71820  0.38110  0.28950  1.0000
  H   H146      1.0  0.69650  0.45860  0.32050  1.0000
  H   H147      1.0  0.76560  0.46300  0.28100  1.0000
  N   N193      1.0  0.84245  0.45626  0.37065  1.0000
  N   N194      1.0  0.89057  0.40842  0.39872  1.0000
  N   N195      1.0  0.87972  0.33153  0.38760  1.0000
  N   N196      1.0  0.82276  0.32684  0.35195  1.0000
  C   C99       1.0  0.93148  0.36200  0.21241  1.0000
  C   C100      1.0  0.00290  0.41500  0.20021  1.0000
  H   H148      1.0  0.99260  0.44330  0.17010  1.0000
  H   H149      1.0  0.01120  0.45400  0.22590  1.0000
  H   H150      1.0  0.05090  0.38180  0.19680  1.0000
  N   N197      1.0  0.86583  0.35418  0.18515  1.0000
  N   N198      1.0  0.81730  0.30073  0.20876  1.0000
  N   N199      1.0  0.85487  0.27672  0.24885  1.0000
  N   N200      1.0  0.92699  0.31512  0.25217  1.0000
  H   H151      1.0  0.26560  0.96300  0.78100  1.0000
  N   N201      1.0  0.34245  0.95626  0.87065  1.0000
  N   N202      1.0  0.39057  0.90842  0.89872  1.0000
  N   N203      1.0  0.37972  0.83153  0.88760  1.0000
  N   N204      1.0  0.32276  0.82684  0.85195  1.0000
  C   C101      1.0  0.30143  0.90410  0.84262  1.0000
  C   C102      1.0  0.23990  0.92890  0.80506  1.0000
  H   H152      1.0  0.21820  0.88110  0.78950  1.0000
  H   H153      1.0  0.19650  0.95860  0.82050  1.0000
  C   C103      1.0  0.43148  0.86200  0.71241  1.0000
  C   C104      1.0  0.50290  0.91500  0.70021  1.0000
  H   H154      1.0  0.49260  0.94330  0.67010  1.0000
  H   H155      1.0  0.51120  0.95400  0.72590  1.0000
  H   H156      1.0  0.55090  0.88180  0.69680  1.0000
  N   N205      1.0  0.36583  0.85418  0.68515  1.0000
  N   N206      1.0  0.31730  0.80073  0.70876  1.0000
  N   N207      1.0  0.35487  0.77672  0.74885  1.0000
  N   N208      1.0  0.42699  0.81512  0.75217  1.0000
  C   C105      1.0  0.69857  0.59590  0.84262  1.0000
  C   C106      1.0  0.76010  0.57110  0.80506  1.0000
  H   H157      1.0  0.78180  0.61890  0.78950  1.0000
  H   H158      1.0  0.80350  0.54140  0.82050  1.0000
  H   H159      1.0  0.73440  0.53700  0.78100  1.0000
  N   N209      1.0  0.65755  0.54374  0.87065  1.0000
  N   N210      1.0  0.60943  0.59158  0.89872  1.0000
  N   N211      1.0  0.62028  0.66847  0.88760  1.0000
  N   N212      1.0  0.67724  0.67316  0.85195  1.0000
  N   N213      1.0  0.57301  0.68488  0.75217  1.0000
  C   C107      1.0  0.56852  0.63800  0.71241  1.0000
  C   C108      1.0  0.49710  0.58500  0.70021  1.0000
  H   H160      1.0  0.50740  0.55670  0.67010  1.0000
  H   H161      1.0  0.48880  0.54600  0.72590  1.0000
  H   H162      1.0  0.44910  0.61820  0.69680  1.0000
  N   N214      1.0  0.63417  0.64582  0.68515  1.0000
  N   N215      1.0  0.68270  0.69927  0.70876  1.0000
  N   N216      1.0  0.64513  0.72328  0.74885  1.0000
  C   C109      1.0  0.19857  0.09590  0.34262  1.0000
  C   C110      1.0  0.26010  0.07110  0.30506  1.0000
  H   H163      1.0  0.28180  0.11890  0.28950  1.0000
  H   H164      1.0  0.30350  0.04140  0.32050  1.0000
  H   H165      1.0  0.23440  0.03700  0.28100  1.0000
  N   N217      1.0  0.15755  0.04374  0.37065  1.0000
  N   N218      1.0  0.10943  0.09158  0.39872  1.0000
  N   N219      1.0  0.12028  0.16847  0.38760  1.0000
  N   N220      1.0  0.17724  0.17316  0.35195  1.0000
  C   C111      1.0  0.06852  0.13800  0.21241  1.0000
  C   C112      1.0  0.99710  0.08500  0.20021  1.0000
  H   H166      1.0  0.00740  0.05670  0.17010  1.0000
  H   H167      1.0  0.98880  0.04600  0.22590  1.0000
  H   H168      1.0  0.94910  0.11820  0.19680  1.0000
  N   N221      1.0  0.13417  0.14582  0.18515  1.0000
  N   N222      1.0  0.18270  0.19927  0.20876  1.0000
  N   N223      1.0  0.14513  0.22328  0.24885  1.0000
  N   N224      1.0  0.07301  0.18488  0.25217  1.0000
  N   N225      1.0  0.15842  0.85943  0.64872  1.0000
  N   N226      1.0  0.08153  0.87028  0.63760  1.0000
  N   N227      1.0  0.07684  0.92724  0.60195  1.0000
  C   C113      1.0  0.15410  0.94857  0.59262  1.0000
  C   C114      1.0  0.17890  0.01010  0.55506  1.0000
  H   H169      1.0  0.13110  0.03180  0.53950  1.0000
  H   H170      1.0  0.20860  0.05350  0.57050  1.0000
  H   H171      1.0  0.21300  0.98440  0.53100  1.0000
  N   N228      1.0  0.20626  0.90755  0.62065  1.0000
  N   N229      1.0  0.10418  0.88417  0.43515  1.0000
  N   N230      1.0  0.05073  0.93270  0.45876  1.0000
  N   N231      1.0  0.02672  0.89513  0.49885  1.0000
  N   N232      1.0  0.06512  0.82301  0.50217  1.0000
  C   C115      1.0  0.11200  0.81852  0.46241  1.0000
  C   C116      1.0  0.16500  0.74710  0.45021  1.0000
  H   H172      1.0  0.19330  0.75740  0.42010  1.0000
  H   H173      1.0  0.20400  0.73880  0.47590  1.0000
  H   H174      1.0  0.13180  0.69910  0.44680  1.0000
  C   C117      1.0  0.65410  0.44857  0.09262  1.0000
  C   C118      1.0  0.67890  0.51010  0.05506  1.0000
  H   H175      1.0  0.63110  0.53180  0.03950  1.0000
  H   H176      1.0  0.70860  0.55350  0.07050  1.0000
  H   H177      1.0  0.71300  0.48440  0.03100  1.0000
  N   N233      1.0  0.70626  0.40755  0.12065  1.0000
  N   N234      1.0  0.65842  0.35943  0.14872  1.0000
  N   N235      1.0  0.58153  0.37028  0.13760  1.0000
  N   N236      1.0  0.57684  0.42724  0.10195  1.0000
  C   C119      1.0  0.61200  0.31852  0.96241  1.0000
  C   C120      1.0  0.66500  0.24710  0.95021  1.0000
  H   H178      1.0  0.69330  0.25740  0.92010  1.0000
  H   H179      1.0  0.70400  0.23880  0.97590  1.0000
  H   H180      1.0  0.63180  0.19910  0.94680  1.0000
  N   N237      1.0  0.60418  0.38417  0.93515  1.0000
  N   N238      1.0  0.55073  0.43270  0.95876  1.0000
  N   N239      1.0  0.52672  0.39513  0.99885  1.0000
  N   N240      1.0  0.56512  0.32301  0.00217  1.0000
  N   N241      1.0  0.29374  0.09245  0.12065  1.0000
  N   N242      1.0  0.34158  0.14057  0.14872  1.0000
  N   N243      1.0  0.41847  0.12972  0.13760  1.0000
  N   N244      1.0  0.42316  0.07276  0.10195  1.0000
  C   C121      1.0  0.34590  0.05143  0.09262  1.0000
  C   C122      1.0  0.32110  0.98990  0.05506  1.0000
  H   H181      1.0  0.36890  0.96820  0.03950  1.0000
  H   H182      1.0  0.29140  0.94650  0.07050  1.0000
  H   H183      1.0  0.28700  0.01560  0.03100  1.0000
  C   C123      1.0  0.38800  0.18148  0.96241  1.0000
  C   C124      1.0  0.33500  0.25290  0.95021  1.0000
  H   H184      1.0  0.30670  0.24260  0.92010  1.0000
  H   H185      1.0  0.29600  0.26120  0.97590  1.0000
  H   H186      1.0  0.36820  0.30090  0.94680  1.0000
  N   N245      1.0  0.39582  0.11583  0.93515  1.0000
  N   N246      1.0  0.44927  0.06730  0.95876  1.0000
  N   N247      1.0  0.47328  0.10487  0.99885  1.0000
  N   N248      1.0  0.43488  0.17699  0.00217  1.0000
  C   C125      1.0  0.84590  0.55143  0.59262  1.0000
  C   C126      1.0  0.82110  0.48990  0.55506  1.0000
  H   H187      1.0  0.86890  0.46820  0.53950  1.0000
  H   H188      1.0  0.79140  0.44650  0.57050  1.0000
  H   H189      1.0  0.78700  0.51560  0.53100  1.0000
  N   N249      1.0  0.79374  0.59245  0.62065  1.0000
  N   N250      1.0  0.84158  0.64057  0.64872  1.0000
  N   N251      1.0  0.91847  0.62972  0.63760  1.0000
  N   N252      1.0  0.92316  0.57276  0.60195  1.0000
  C   C127      1.0  0.88800  0.68148  0.46241  1.0000
  C   C128      1.0  0.83500  0.75290  0.45021  1.0000
  H   H190      1.0  0.80670  0.74260  0.42010  1.0000
  H   H191      1.0  0.79600  0.76120  0.47590  1.0000
  H   H192      1.0  0.86820  0.80090  0.44680  1.0000
  N   N253      1.0  0.89582  0.61583  0.43515  1.0000
  N   N254      1.0  0.94927  0.56730  0.45876  1.0000
  N   N255      1.0  0.97328  0.60487  0.49885  1.0000
  N   N256      1.0  0.93488  0.67699  0.50217  1.0000
  Cu  Cu1       1.0  0.29728  0.77162  0.30851  1.0000
  Cu  Cu2       1.0  0.20272  0.27162  0.30851  1.0000
  Cu  Cu3       1.0  0.47838  0.95272  0.94149  1.0000
  Cu  Cu4       1.0  0.79728  0.27162  0.80851  1.0000
  Cu  Cu5       1.0  0.97838  0.95272  0.55851  1.0000
  Cu  Cu6       1.0  0.97838  0.45272  0.44149  1.0000
  Cu  Cu7       1.0  0.20272  0.22838  0.80851  1.0000
  Cu  Cu8       1.0  0.47838  0.45272  0.05851  1.0000
  Cu  Cu9       1.0  0.70272  0.22838  0.69149  1.0000
  Cu  Cu10      1.0  0.70272  0.72838  0.30851  1.0000
  Cu  Cu11      1.0  0.52162  0.04728  0.05851  1.0000
  Cu  Cu12      1.0  0.20272  0.72838  0.19149  1.0000
  Cu  Cu13      1.0  0.47838  0.04728  0.55851  1.0000
  Cu  Cu14      1.0  0.02162  0.54728  0.55851  1.0000
  Cu  Cu15      1.0  0.79728  0.77162  0.19149  1.0000
  Cu  Cu16      1.0  0.97838  0.54728  0.05851  1.0000
  Cu  Cu17      1.0  0.33145  0.58145  0.12500  1.0000
  Cu  Cu18      1.0  0.83145  0.08145  0.62500  1.0000
  Cu  Cu19      1.0  0.16855  0.41855  0.62500  1.0000
  Cu  Cu20      1.0  0.66855  0.08145  0.37500  1.0000
  Cu  Cu21      1.0  0.83145  0.91855  0.87500  1.0000
  Cu  Cu22      1.0  0.16855  0.58145  0.87500  1.0000
  Cu  Cu23      1.0  0.33145  0.41855  0.37500  1.0000
  Cu  Cu24      1.0  0.66855  0.91855  0.12500  1.0000
  Cu  Cu25      1.0  0.66855  0.41855  0.87500  1.0000
  Cu  Cu26      1.0  0.29728  0.27162  0.69149  1.0000
  Cu  Cu27      1.0  0.16855  0.91855  0.37500  1.0000
  Cu  Cu28      1.0  0.83145  0.58145  0.37500  1.0000
  Cu  Cu29      1.0  0.33145  0.08145  0.87500  1.0000
  Cu  Cu30      1.0  0.33145  0.91855  0.62500  1.0000
  Cu  Cu31      1.0  0.16855  0.08145  0.12500  1.0000
  Cu  Cu32      1.0  0.83145  0.41855  0.12500  1.0000
  Cu  Cu33      1.0  0.66855  0.58145  0.62500  1.0000
  Na  Na1       1.0  0.50000  0.75000  0.31725  1.0000
  Cu  Cu34      1.0  0.02162  0.95272  0.05851  1.0000
  Na  Na2       1.0  0.00000  0.25000  0.81725  1.0000
  Na  Na3       1.0  0.50000  0.25000  0.56725  1.0000
  Na  Na4       1.0  0.00000  0.75000  0.06725  1.0000
  Na  Na5       1.0  0.00000  0.75000  0.68275  1.0000
  Na  Na6       1.0  0.50000  0.75000  0.93275  1.0000
  Na  Na7       1.0  0.50000  0.25000  0.68275  1.0000
  Na  Na8       1.0  0.00000  0.75000  0.18275  1.0000
  Na  Na9       1.0  0.50000  0.25000  0.18275  1.0000
  Na  Na10      1.0  0.00000  0.25000  0.93275  1.0000
  Na  Na11      1.0  0.00000  0.25000  0.31725  1.0000
  Na  Na12      1.0  0.50000  0.75000  0.81725  1.0000
  Na  Na13      1.0  0.00000  0.25000  0.43275  1.0000
  Cu  Cu35      1.0  0.52162  0.95272  0.44149  1.0000
  Na  Na14      1.0  0.50000  0.75000  0.43275  1.0000
  Na  Na15      1.0  0.00000  0.75000  0.56725  1.0000
  Na  Na16      1.0  0.50000  0.25000  0.06725  1.0000
  Cu  Cu36      1.0  0.52162  0.45272  0.55851  1.0000
  Cu  Cu37      1.0  0.02162  0.45272  0.94149  1.0000
  Cu  Cu38      1.0  0.20272  0.77162  0.69149  1.0000
  Cu  Cu39      1.0  0.97838  0.04728  0.94149  1.0000
  Cu  Cu40      1.0  0.70272  0.27162  0.19149  1.0000
  Cu  Cu41      1.0  0.47838  0.54728  0.44149  1.0000
  Cu  Cu42      1.0  0.29728  0.22838  0.19149  1.0000
  Cu  Cu43      1.0  0.79728  0.22838  0.30851  1.0000
  Cu  Cu44      1.0  0.79728  0.72838  0.69149  1.0000
  Cu  Cu45      1.0  0.29728  0.72838  0.80851  1.0000
  Cu  Cu46      1.0  0.02162  0.04728  0.44149  1.0000
  Cu  Cu47      1.0  0.70272  0.77162  0.80851  1.0000
  Cu  Cu48      1.0  0.52162  0.54728  0.94149  1.0000
