data_image0
_chemical_formula_structural       O6C3HC3HC3HC3HC3HC3HO6CHO6C3HC3HC2O6C3HC3HC3HCd4
_chemical_formula_sum              "O24 C36 H12 Cd4"
_cell_length_a       10.24
_cell_length_b       13.772
_cell_length_c       16.7
_cell_angle_alpha    90
_cell_angle_beta     127.046
_cell_angle_gamma    90

_space_group_name_H-M_alt    "P 1"
_space_group_IT_number       1

loop_
  _space_group_symop_operation_xyz
  'x, y, z'

loop_
  _atom_site_type_symbol
  _atom_site_label
  _atom_site_symmetry_multiplicity
  _atom_site_fract_x
  _atom_site_fract_y
  _atom_site_fract_z
  _atom_site_occupancy
  O   O1        1.0  0.68050  0.54580  0.05330  1.0000
  O   O2        1.0  0.66660  0.64800  0.14840  1.0000
  O   O3        1.0  0.20080  0.54710  0.07730  1.0000
  O   O4        1.0  0.38760  0.65690  0.17430  1.0000
  O   O5        1.0  0.36600  0.83320  0.42730  1.0000
  O   O6        1.0  0.17110  0.79410  0.44080  1.0000
  C   C1        1.0  0.74000  0.60960  0.11790  1.0000
  C   C2        1.0  0.91280  0.64400  0.16610  1.0000
  C   C3        1.0  0.99850  0.61520  0.13050  1.0000
  H   H1        1.0  0.94850  0.57530  0.07440  1.0000
  C   C4        1.0  0.15820  0.64540  0.17800  1.0000
  C   C5        1.0  0.25350  0.61450  0.14020  1.0000
  C   C6        1.0  0.23310  0.70390  0.26090  1.0000
  H   H2        1.0  0.33910  0.72590  0.29140  1.0000
  C   C7        1.0  0.14840  0.73050  0.29990  1.0000
  C   C8        1.0  0.23470  0.79030  0.39570  1.0000
  C   C9        1.0  0.99100  0.70110  0.25340  1.0000
  H   H3        1.0  0.93550  0.71880  0.27930  1.0000
  C   C10       1.0  0.26000  0.10960  0.38210  1.0000
  C   C11       1.0  0.08720  0.14400  0.33390  1.0000
  C   C12       1.0  0.00150  0.11520  0.36950  1.0000
  H   H4        1.0  0.05150  0.07530  0.42560  1.0000
  C   C13       1.0  0.84180  0.14540  0.32200  1.0000
  C   C14       1.0  0.74650  0.11450  0.35980  1.0000
  C   C15       1.0  0.76690  0.20390  0.23910  1.0000
  H   H5        1.0  0.66090  0.22590  0.20860  1.0000
  C   C16       1.0  0.85160  0.23050  0.20010  1.0000
  C   C17       1.0  0.76530  0.29030  0.10430  1.0000
  C   C18       1.0  0.00900  0.20110  0.24660  1.0000
  H   H6        1.0  0.06450  0.21880  0.22070  1.0000
  O   O7        1.0  0.31950  0.04580  0.44670  1.0000
  O   O8        1.0  0.33340  0.14800  0.35160  1.0000
  O   O9        1.0  0.79920  0.04710  0.42270  1.0000
  O   O10       1.0  0.61240  0.15690  0.32570  1.0000
  O   O11       1.0  0.63400  0.33320  0.07270  1.0000
  O   O12       1.0  0.82890  0.29410  0.05920  1.0000
  C   C19       1.0  0.00900  0.29890  0.74660  1.0000
  H   H7        1.0  0.06450  0.28120  0.72070  1.0000
  O   O13       1.0  0.31950  0.45420  0.94670  1.0000
  O   O14       1.0  0.33340  0.35200  0.85160  1.0000
  O   O15       1.0  0.79920  0.45290  0.92270  1.0000
  O   O16       1.0  0.61240  0.34310  0.82570  1.0000
  O   O17       1.0  0.63400  0.16680  0.57270  1.0000
  O   O18       1.0  0.82890  0.20590  0.55920  1.0000
  C   C20       1.0  0.26000  0.39040  0.88210  1.0000
  C   C21       1.0  0.08720  0.35600  0.83390  1.0000
  C   C22       1.0  0.00150  0.38480  0.86950  1.0000
  H   H8        1.0  0.05150  0.42470  0.92560  1.0000
  C   C23       1.0  0.84180  0.35460  0.82200  1.0000
  C   C24       1.0  0.74650  0.38550  0.85980  1.0000
  C   C25       1.0  0.76690  0.29610  0.73910  1.0000
  H   H9        1.0  0.66090  0.27410  0.70860  1.0000
  C   C26       1.0  0.85160  0.26950  0.70010  1.0000
  C   C27       1.0  0.76530  0.20970  0.60430  1.0000
  O   O19       1.0  0.68050  0.95420  0.55330  1.0000
  O   O20       1.0  0.66660  0.85200  0.64840  1.0000
  O   O21       1.0  0.20080  0.95290  0.57730  1.0000
  O   O22       1.0  0.38760  0.84310  0.67430  1.0000
  O   O23       1.0  0.36600  0.66680  0.92730  1.0000
  O   O24       1.0  0.17110  0.70590  0.94080  1.0000
  C   C28       1.0  0.74000  0.89040  0.61790  1.0000
  C   C29       1.0  0.91280  0.85600  0.66610  1.0000
  C   C30       1.0  0.99850  0.88480  0.63050  1.0000
  H   H10       1.0  0.94850  0.92470  0.57440  1.0000
  C   C31       1.0  0.15820  0.85460  0.67800  1.0000
  C   C32       1.0  0.25350  0.88550  0.64020  1.0000
  C   C33       1.0  0.23310  0.79610  0.76090  1.0000
  H   H11       1.0  0.33910  0.77410  0.79140  1.0000
  C   C34       1.0  0.14840  0.76950  0.79990  1.0000
  C   C35       1.0  0.23470  0.70970  0.89570  1.0000
  C   C36       1.0  0.99100  0.79890  0.75340  1.0000
  H   H12       1.0  0.93550  0.78120  0.77930  1.0000
  Cd  Cd1       1.0  0.58220  0.42413  0.93814  1.0000
  Cd  Cd2       1.0  0.58220  0.07587  0.43814  1.0000
  Cd  Cd3       1.0  0.41780  0.57587  0.06186  1.0000
  Cd  Cd4       1.0  0.41780  0.92413  0.56186  1.0000
