data_image0
_chemical_formula_structural       O4N2C3HCHC2HCHCHCHCHC2HCHC2HCHCO4N2C3HCHC2HCHCHCHCHC2HCHCHC2HCO4N2C3HCHC2HCHCHCHCHC2HCHC2HCHCHC2HCHCHCHCHC2HCHCHC2HCO4N2C3HCO4N2C3HCHC2HCHCHCHCHC2HCHC2HCHCO4N2C3HCHC2HCHCHCHCHC2HCHCHC2HC3HCHC2HCHCHCHCHC2HCHC2HCHCO4N2C4HCHC2HCHCHCHCHC2HCHCHC2HCO4N2O4N2C3HCHC2HCHCHCHCHC2HCHC2HCHCHCHC2HCO4N2C3HCHC2HCHCHCHCHC2HCO4N2C3HCHC2HCHCHCHCHC2HCHC2HCHCO4N2C3HCHC2HCHCHCHCHC2HCHCHC2HC3HCHC2HCHCO4N2C3HCHC2HCHCHCHCHC3HCHC2HCHCHCHCHC2HCHCHC2HCO4N2O4N2C3HCHC2HCHCHCHCHC2HCHC2HCHCO4N2C3HCHC2HCHCHCHCHC2HCHCHC2HCO4N2C3HCHC2HCHCHCHCHC2HCHC2HCHCO4N2C3HCHC2HCHCHCHCHC2HCHCHC2HCO4N2C3HCHC2HCHCHCHCHC2HCHC2HCHCHC2HCHCHCHCHC2HCHCHC2HCO4N2C3HCO4N2C3HCHC2HCHCHCHCHC2HCHC2HCHCO4N2C3HCHC2HCHCHCHCHC2HCHCHC2HC3HCHC2HCHCHCHCHC2HCHC2HCHCO4N2C4HCHC2HCHCHCHCHC2HCHCHC2HCO4N2O4N2C3HCHC2HCHCHCHCHC2HCHC2HCHCHCHC2HCO4N2C3HCHC2HCHCHCHCHC2HCO4N2C3HCHC2HCHCHCHCHC2HCHC2HCHCO4N2C3HCHC2HCHCHCHCHC2HCHCHC2HC3HCHC2HCHCO4N2C3HCHC2HCHCHCHCHC3HCHC2HCHCHCHCHC2HCHCHC2HCO4N2O4N2C3HCHC2HCHCHCHCHC2HCHC2HCHCO4N2C3HCHC2HCHCHCHCHC2HCHCHC2HCO4N2C3HCHC2HCHCHCHCHC2HCHC2HCHCO4N2C3HCHC2HCHCHCHCHC2HCHCHC2HCO4N2C3HCHC2HCHCHCHCHC2HCHC2HCHCHC2HCHCHCHCHC2HCHCHC2HCO4N2C3HC3OH2CHNH5C2OH2CHNHC2OH2CHNH5C2OH2CHNHC2OH2CHNH5C2OH2CHNHC2OH2CHNH5C2OH2CHNHC2OH2CHNH5C2OH2CHNHC2OH2CHNH5C2OH2CHNHC2OH2CHNH5C2OH2CHNHC2OH2CHNH5C2OH2CHNHC2OH2CHNH5C2OH2CHNHZn19O3Zn5
_chemical_formula_sum              "O165 N90 C666 H504 Zn24"
_cell_length_a       23.102
_cell_length_b       23.102
_cell_length_c       59.977
_cell_angle_alpha    90
_cell_angle_beta     90
_cell_angle_gamma    120

_space_group_name_H-M_alt    "P 1"
_space_group_IT_number       1

loop_
  _space_group_symop_operation_xyz
  'x, y, z'

loop_
  _atom_site_type_symbol
  _atom_site_label
  _atom_site_symmetry_multiplicity
  _atom_site_fract_x
  _atom_site_fract_y
  _atom_site_fract_z
  _atom_site_occupancy
  O   O1        1.0  0.94474  0.17233  0.31954  1.0000
  O   O2        1.0  0.93982  0.11142  0.34900  1.0000
  O   O3        1.0  0.43020  0.72580  0.20577  1.0000
  O   O4        1.0  0.47050  0.68880  0.18348  1.0000
  N   N1        1.0  0.77592  0.87915  0.27929  1.0000
  N   N2        1.0  0.69826  0.81160  0.25676  1.0000
  C   C1        1.0  0.92758  0.11816  0.32883  1.0000
  C   C2        1.0  0.89058  0.05487  0.31565  1.0000
  C   C3        1.0  0.86975  0.05784  0.29405  1.0000
  H   H1        1.0  0.88070  0.09970  0.28770  1.0000
  C   C4        1.0  0.83340  0.00000  0.28203  1.0000
  H   H2        1.0  0.81910  0.00150  0.26730  1.0000
  C   C5        1.0  0.81773  0.93935  0.29172  1.0000
  C   C6        1.0  0.83846  0.93501  0.31237  1.0000
  H   H3        1.0  0.82840  0.89290  0.31840  1.0000
  C   C7        1.0  0.87520  0.99383  0.32480  1.0000
  H   H4        1.0  0.88950  0.99180  0.33950  1.0000
  C   C8        1.0  0.78090  0.82280  0.27748  1.0000
  H   H5        1.0  0.81280  0.81520  0.28490  1.0000
  C   C9        1.0  0.73400  0.78050  0.26364  1.0000
  H   H6        1.0  0.72620  0.73770  0.25930  1.0000
  C   C10       1.0  0.72560  0.87120  0.26662  1.0000
  H   H7        1.0  0.71130  0.90290  0.26480  1.0000
  C   C11       1.0  0.64190  0.78720  0.24255  1.0000
  C   C12       1.0  0.59620  0.80510  0.24604  1.0000
  H   H8        1.0  0.60110  0.83390  0.25810  1.0000
  C   C13       1.0  0.54120  0.78110  0.23189  1.0000
  H   H9        1.0  0.50930  0.79490  0.23430  1.0000
  C   C14       1.0  0.53200  0.74170  0.21593  1.0000
  C   C15       1.0  0.58180  0.72470  0.21040  1.0000
  H   H10       1.0  0.57920  0.70110  0.19710  1.0000
  C   C16       1.0  0.63440  0.74460  0.22547  1.0000
  H   H11       1.0  0.66500  0.72870  0.22390  1.0000
  C   C17       1.0  0.47340  0.71980  0.20120  1.0000
  O   O5        1.0  0.07504  0.15236  0.37716  1.0000
  O   O6        1.0  0.08070  0.24309  0.36266  1.0000
  O   O7        1.0  0.72820  0.70066  0.36426  1.0000
  O   O8        1.0  0.78890  0.65160  0.36261  1.0000
  N   N3        1.0  0.38810  0.32591  0.36080  1.0000
  N   N4        1.0  0.49293  0.39925  0.35921  1.0000
  C   C18       1.0  0.73532  0.64936  0.36295  1.0000
  C   C19       1.0  0.67097  0.58402  0.36156  1.0000
  C   C20       1.0  0.67195  0.52451  0.36274  1.0000
  H   H12       1.0  0.71340  0.52560  0.36420  1.0000
  C   C21       1.0  0.61334  0.46374  0.36183  1.0000
  H   H13       1.0  0.61440  0.42320  0.36250  1.0000
  C   C22       1.0  0.55352  0.46235  0.35987  1.0000
  C   C23       1.0  0.55179  0.52089  0.35739  1.0000
  H   H14       1.0  0.51060  0.51950  0.35470  1.0000
  C   C24       1.0  0.61040  0.58158  0.35887  1.0000
  H   H15       1.0  0.60900  0.62190  0.35800  1.0000
  C   C25       1.0  0.48767  0.33658  0.36014  1.0000
  H   H16       1.0  0.52370  0.32780  0.36020  1.0000
  C   C26       1.0  0.42334  0.29165  0.36090  1.0000
  H   H17       1.0  0.40460  0.24450  0.36140  1.0000
  C   C27       1.0  0.43109  0.39063  0.35914  1.0000
  H   H18       1.0  0.42010  0.42510  0.35810  1.0000
  C   C28       1.0  0.31672  0.29607  0.36202  1.0000
  C   C29       1.0  0.28571  0.32812  0.35262  1.0000
  H   H19       1.0  0.31080  0.36850  0.34450  1.0000
  C   C30       1.0  0.28077  0.23534  0.37267  1.0000
  H   H20       1.0  0.30270  0.21310  0.37850  1.0000
  C   C31       1.0  0.21200  0.20710  0.37473  1.0000
  H   H21       1.0  0.18660  0.16530  0.38200  1.0000
  C   C32       1.0  0.18030  0.23970  0.36618  1.0000
  C   C33       1.0  0.21820  0.30048  0.35524  1.0000
  H   H22       1.0  0.19670  0.32320  0.34950  1.0000
  C   C34       1.0  0.10651  0.20810  0.36922  1.0000
  O   O9        1.0  0.61141  0.50566  0.65287  1.0000
  O   O10       1.0  0.60649  0.44475  0.68233  1.0000
  O   O11       1.0  0.09687  0.05913  0.53910  1.0000
  O   O12       1.0  0.13717  0.02213  0.51681  1.0000
  N   N5        1.0  0.44259  0.21248  0.61262  1.0000
  N   N6        1.0  0.36493  0.14493  0.59009  1.0000
  C   C35       1.0  0.59425  0.45149  0.66216  1.0000
  C   C36       1.0  0.55725  0.38820  0.64898  1.0000
  C   C37       1.0  0.53642  0.39117  0.62738  1.0000
  H   H23       1.0  0.54737  0.43303  0.62103  1.0000
  C   C38       1.0  0.50007  0.33333  0.61536  1.0000
  H   H24       1.0  0.48577  0.33483  0.60063  1.0000
  C   C39       1.0  0.48440  0.27268  0.62505  1.0000
  C   C40       1.0  0.50513  0.26834  0.64570  1.0000
  H   H25       1.0  0.49507  0.22623  0.65173  1.0000
  C   C41       1.0  0.54187  0.32716  0.65813  1.0000
  H   H26       1.0  0.55617  0.32513  0.67283  1.0000
  C   C42       1.0  0.44757  0.15613  0.61081  1.0000
  H   H27       1.0  0.47947  0.14853  0.61823  1.0000
  C   C43       1.0  0.40067  0.11383  0.59697  1.0000
  H   H28       1.0  0.39287  0.07103  0.59263  1.0000
  C   C44       1.0  0.39227  0.20453  0.59995  1.0000
  H   H29       1.0  0.37797  0.23623  0.59813  1.0000
  C   C45       1.0  0.30857  0.12053  0.57588  1.0000
  C   C46       1.0  0.26287  0.13843  0.57937  1.0000
  H   H30       1.0  0.26777  0.16723  0.59143  1.0000
  C   C47       1.0  0.20787  0.11443  0.56522  1.0000
  H   H31       1.0  0.17597  0.12823  0.56763  1.0000
  C   C48       1.0  0.19867  0.07503  0.54926  1.0000
  C   C49       1.0  0.24847  0.05803  0.54373  1.0000
  H   H32       1.0  0.24587  0.03443  0.53043  1.0000
  C   C50       1.0  0.30107  0.07793  0.55880  1.0000
  H   H33       1.0  0.33167  0.06203  0.55723  1.0000
  C   C51       1.0  0.14007  0.05313  0.53453  1.0000
  H   H34       1.0  0.28107  0.75653  0.69583  1.0000
  C   C52       1.0  0.22019  0.79568  0.69320  1.0000
  C   C53       1.0  0.21846  0.85422  0.69072  1.0000
  H   H35       1.0  0.17727  0.85283  0.68803  1.0000
  C   C54       1.0  0.27707  0.91491  0.69220  1.0000
  H   H36       1.0  0.27567  0.95523  0.69133  1.0000
  C   C55       1.0  0.15434  0.66991  0.69347  1.0000
  H   H37       1.0  0.19037  0.66113  0.69353  1.0000
  C   C56       1.0  0.09001  0.62498  0.69423  1.0000
  H   H38       1.0  0.07127  0.57783  0.69473  1.0000
  C   C57       1.0  0.09776  0.72396  0.69247  1.0000
  H   H39       1.0  0.08677  0.75843  0.69143  1.0000
  C   C58       1.0  0.98339  0.62940  0.69535  1.0000
  C   C59       1.0  0.95238  0.66145  0.68595  1.0000
  H   H40       1.0  0.97747  0.70183  0.67783  1.0000
  C   C60       1.0  0.94744  0.56867  0.70600  1.0000
  H   H41       1.0  0.96937  0.54643  0.71183  1.0000
  C   C61       1.0  0.87867  0.54043  0.70806  1.0000
  H   H42       1.0  0.85327  0.49863  0.71533  1.0000
  C   C62       1.0  0.84697  0.57303  0.69951  1.0000
  C   C63       1.0  0.88487  0.63381  0.68857  1.0000
  H   H43       1.0  0.86337  0.65653  0.68283  1.0000
  C   C64       1.0  0.77318  0.54143  0.70255  1.0000
  O   O13       1.0  0.74171  0.48569  0.71049  1.0000
  O   O14       1.0  0.74737  0.57642  0.69599  1.0000
  O   O15       1.0  0.39487  0.03399  0.69759  1.0000
  O   O16       1.0  0.45557  0.98493  0.69594  1.0000
  N   N7        1.0  0.05477  0.65924  0.69413  1.0000
  N   N8        1.0  0.15960  0.73258  0.69254  1.0000
  C   C65       1.0  0.40199  0.98269  0.69628  1.0000
  C   C66       1.0  0.33764  0.91735  0.69489  1.0000
  C   C67       1.0  0.33862  0.85784  0.69607  1.0000
  H   H44       1.0  0.38007  0.85893  0.69753  1.0000
  C   C68       1.0  0.28001  0.79707  0.69516  1.0000
  O   O17       1.0  0.27807  0.83900  0.98621  1.0000
  O   O18       1.0  0.27315  0.77809  0.01567  1.0000
  O   O19       1.0  0.76353  0.39247  0.87244  1.0000
  O   O20       1.0  0.80383  0.35547  0.85015  1.0000
  N   N9        1.0  0.10925  0.54582  0.94596  1.0000
  N   N10       1.0  0.03159  0.47827  0.92343  1.0000
  C   C69       1.0  0.26091  0.78483  0.99550  1.0000
  C   C70       1.0  0.22391  0.72154  0.98232  1.0000
  C   C71       1.0  0.20308  0.72451  0.96072  1.0000
  H   H45       1.0  0.21403  0.76637  0.95437  1.0000
  C   C72       1.0  0.16673  0.66667  0.94870  1.0000
  H   H46       1.0  0.15243  0.66817  0.93397  1.0000
  C   C73       1.0  0.15106  0.60602  0.95839  1.0000
  C   C74       1.0  0.17179  0.60168  0.97904  1.0000
  H   H47       1.0  0.16173  0.55957  0.98507  1.0000
  C   C75       1.0  0.20853  0.66050  0.99147  1.0000
  H   H48       1.0  0.22283  0.65847  0.00617  1.0000
  C   C76       1.0  0.11423  0.48947  0.94415  1.0000
  H   H49       1.0  0.14613  0.48187  0.95157  1.0000
  C   C77       1.0  0.06733  0.44717  0.93031  1.0000
  H   H50       1.0  0.05953  0.40437  0.92597  1.0000
  C   C78       1.0  0.05893  0.53787  0.93329  1.0000
  H   H51       1.0  0.04463  0.56957  0.93147  1.0000
  C   C79       1.0  0.97523  0.45387  0.90922  1.0000
  C   C80       1.0  0.92953  0.47177  0.91271  1.0000
  H   H52       1.0  0.93443  0.50057  0.92477  1.0000
  C   C81       1.0  0.87453  0.44777  0.89856  1.0000
  H   H53       1.0  0.84263  0.46157  0.90097  1.0000
  C   C82       1.0  0.86533  0.40837  0.88260  1.0000
  C   C83       1.0  0.91513  0.39137  0.87707  1.0000
  H   H54       1.0  0.91253  0.36777  0.86377  1.0000
  C   C84       1.0  0.96773  0.41127  0.89214  1.0000
  H   H55       1.0  0.99833  0.39537  0.89057  1.0000
  C   C85       1.0  0.80673  0.38647  0.86787  1.0000
  O   O21       1.0  0.40837  0.81903  0.04383  1.0000
  O   O22       1.0  0.41403  0.90976  0.02933  1.0000
  O   O23       1.0  0.06153  0.36733  0.03093  1.0000
  O   O24       1.0  0.12223  0.31827  0.02928  1.0000
  N   N11       1.0  0.72143  0.99258  0.02747  1.0000
  N   N12       1.0  0.82626  0.06592  0.02588  1.0000
  C   C86       1.0  0.06865  0.31603  0.02962  1.0000
  C   C87       1.0  0.00430  0.25069  0.02823  1.0000
  C   C88       1.0  0.00528  0.19118  0.02941  1.0000
  H   H56       1.0  0.04673  0.19227  0.03087  1.0000
  C   C89       1.0  0.94667  0.13041  0.02850  1.0000
  H   H57       1.0  0.94773  0.08987  0.02917  1.0000
  C   C90       1.0  0.88685  0.12902  0.02654  1.0000
  C   C91       1.0  0.88512  0.18756  0.02406  1.0000
  H   H58       1.0  0.84393  0.18617  0.02137  1.0000
  C   C92       1.0  0.94373  0.24825  0.02554  1.0000
  H   H59       1.0  0.94233  0.28857  0.02467  1.0000
  C   C93       1.0  0.82100  0.00325  0.02681  1.0000
  H   H60       1.0  0.85703  0.99447  0.02687  1.0000
  C   C94       1.0  0.75667  0.95832  0.02757  1.0000
  H   H61       1.0  0.73793  0.91117  0.02807  1.0000
  C   C95       1.0  0.76442  0.05730  0.02581  1.0000
  H   H62       1.0  0.75343  0.09177  0.02477  1.0000
  C   C96       1.0  0.65005  0.96274  0.02869  1.0000
  C   C97       1.0  0.61904  0.99479  0.01929  1.0000
  H   H63       1.0  0.64413  0.03517  0.01117  1.0000
  C   C98       1.0  0.61410  0.90201  0.03934  1.0000
  H   H64       1.0  0.63603  0.87977  0.04517  1.0000
  C   C99       1.0  0.54533  0.87377  0.04140  1.0000
  H   H65       1.0  0.51993  0.83197  0.04867  1.0000
  C   C100      1.0  0.51363  0.90637  0.03285  1.0000
  C   C101      1.0  0.55153  0.96715  0.02191  1.0000
  H   H66       1.0  0.53003  0.98987  0.01617  1.0000
  C   C102      1.0  0.43984  0.87477  0.03589  1.0000
  C   C103      1.0  0.94513  0.83571  0.31565  1.0000
  C   C104      1.0  0.94216  0.81191  0.29405  1.0000
  H   H67       1.0  0.90030  0.78100  0.28770  1.0000
  C   C105      1.0  0.00000  0.83340  0.28203  1.0000
  H   H68       1.0  0.99850  0.81760  0.26730  1.0000
  C   C106      1.0  0.06065  0.87838  0.29172  1.0000
  C   C107      1.0  0.06499  0.90345  0.31237  1.0000
  H   H69       1.0  0.10710  0.93550  0.31840  1.0000
  C   C108      1.0  0.00617  0.88137  0.32480  1.0000
  H   H70       1.0  0.00820  0.89770  0.33950  1.0000
  C   C109      1.0  0.17720  0.95810  0.27748  1.0000
  H   H71       1.0  0.18480  0.99760  0.28490  1.0000
  C   C110      1.0  0.21950  0.95350  0.26364  1.0000
  H   H72       1.0  0.26230  0.98850  0.25930  1.0000
  C   C111      1.0  0.12880  0.85440  0.26662  1.0000
  H   H73       1.0  0.09710  0.80840  0.26480  1.0000
  C   C112      1.0  0.21280  0.85470  0.24255  1.0000
  C   C113      1.0  0.19490  0.79110  0.24604  1.0000
  H   H74       1.0  0.16610  0.76720  0.25810  1.0000
  C   C114      1.0  0.21890  0.76010  0.23189  1.0000
  H   H75       1.0  0.20510  0.71440  0.23430  1.0000
  C   C115      1.0  0.25830  0.79030  0.21593  1.0000
  C   C116      1.0  0.27530  0.85710  0.21040  1.0000
  H   H76       1.0  0.29890  0.87810  0.19710  1.0000
  C   C117      1.0  0.25540  0.88980  0.22547  1.0000
  H   H77       1.0  0.27130  0.93630  0.22390  1.0000
  C   C118      1.0  0.28020  0.75360  0.20120  1.0000
  O   O25       1.0  0.82767  0.77241  0.31954  1.0000
  O   O26       1.0  0.88858  0.82840  0.34900  1.0000
  O   O27       1.0  0.27420  0.70440  0.20577  1.0000
  O   O28       1.0  0.31120  0.78170  0.18348  1.0000
  N   N13       1.0  0.12085  0.89677  0.27929  1.0000
  N   N14       1.0  0.18840  0.88666  0.25676  1.0000
  C   C119      1.0  0.88184  0.80942  0.32883  1.0000
  C   C120      1.0  0.35064  0.08596  0.36295  1.0000
  C   C121      1.0  0.41598  0.08695  0.36156  1.0000
  C   C122      1.0  0.47549  0.14744  0.36274  1.0000
  H   H78       1.0  0.47440  0.18780  0.36420  1.0000
  C   C123      1.0  0.53626  0.14960  0.36183  1.0000
  H   H79       1.0  0.57680  0.19120  0.36250  1.0000
  C   C124      1.0  0.53765  0.09117  0.35987  1.0000
  C   C125      1.0  0.47911  0.03090  0.35739  1.0000
  H   H80       1.0  0.48050  0.99110  0.35470  1.0000
  C   C126      1.0  0.41842  0.02882  0.35887  1.0000
  H   H81       1.0  0.37810  0.98710  0.35800  1.0000
  C   C127      1.0  0.66342  0.15109  0.36014  1.0000
  H   H82       1.0  0.67220  0.19590  0.36020  1.0000
  C   C128      1.0  0.70835  0.13169  0.36090  1.0000
  H   H83       1.0  0.75550  0.16010  0.36140  1.0000
  C   C129      1.0  0.60937  0.04046  0.35914  1.0000
  H   H84       1.0  0.57490  0.99500  0.35810  1.0000
  C   C130      1.0  0.70393  0.02065  0.36202  1.0000
  C   C131      1.0  0.67188  0.95759  0.35262  1.0000
  H   H85       1.0  0.63150  0.94230  0.34450  1.0000
  C   C132      1.0  0.76466  0.04543  0.37267  1.0000
  H   H86       1.0  0.78690  0.08960  0.37850  1.0000
  C   C133      1.0  0.79290  0.00490  0.37473  1.0000
  H   H87       1.0  0.83470  0.02130  0.38200  1.0000
  C   C134      1.0  0.76030  0.94060  0.36618  1.0000
  C   C135      1.0  0.69952  0.91772  0.35524  1.0000
  H   H88       1.0  0.67680  0.87350  0.34950  1.0000
  C   C136      1.0  0.79190  0.89841  0.36922  1.0000
  O   O29       1.0  0.84764  0.92268  0.37716  1.0000
  O   O30       1.0  0.75691  0.83761  0.36266  1.0000
  O   O31       1.0  0.29934  0.02754  0.36426  1.0000
  O   O32       1.0  0.34840  0.13730  0.36261  1.0000
  N   N15       1.0  0.67409  0.06219  0.36080  1.0000
  N   N16       1.0  0.60075  0.09368  0.35921  1.0000
  O   O33       1.0  0.49434  0.10574  0.65287  1.0000
  O   O34       1.0  0.55525  0.16173  0.68233  1.0000
  O   O35       1.0  0.94087  0.03773  0.53910  1.0000
  O   O36       1.0  0.97787  0.11503  0.51681  1.0000
  N   N17       1.0  0.78752  0.23010  0.61262  1.0000
  N   N18       1.0  0.85507  0.21999  0.59009  1.0000
  C   C137      1.0  0.54851  0.14275  0.66216  1.0000
  C   C138      1.0  0.61180  0.16904  0.64898  1.0000
  C   C139      1.0  0.60883  0.14524  0.62738  1.0000
  H   H89       1.0  0.56697  0.11433  0.62103  1.0000
  C   C140      1.0  0.66667  0.16673  0.61536  1.0000
  H   H90       1.0  0.66517  0.15093  0.60063  1.0000
  C   C141      1.0  0.72732  0.21171  0.62505  1.0000
  C   C142      1.0  0.73166  0.23678  0.64570  1.0000
  H   H91       1.0  0.77377  0.26883  0.65173  1.0000
  C   C143      1.0  0.67284  0.21470  0.65813  1.0000
  H   H92       1.0  0.67487  0.23103  0.67283  1.0000
  C   C144      1.0  0.84387  0.29143  0.61081  1.0000
  H   H93       1.0  0.85147  0.33093  0.61823  1.0000
  C   C145      1.0  0.88617  0.28683  0.59697  1.0000
  H   H94       1.0  0.92897  0.32183  0.59263  1.0000
  C   C146      1.0  0.79547  0.18773  0.59995  1.0000
  H   H95       1.0  0.76377  0.14173  0.59813  1.0000
  C   C147      1.0  0.87947  0.18803  0.57588  1.0000
  C   C148      1.0  0.86157  0.12443  0.57937  1.0000
  H   H96       1.0  0.83277  0.10053  0.59143  1.0000
  C   C149      1.0  0.88557  0.09343  0.56522  1.0000
  H   H97       1.0  0.87177  0.04773  0.56763  1.0000
  C   C150      1.0  0.92497  0.12363  0.54926  1.0000
  C   C151      1.0  0.94197  0.19043  0.54373  1.0000
  H   H98       1.0  0.96557  0.21143  0.53043  1.0000
  C   C152      1.0  0.92207  0.22313  0.55880  1.0000
  H   H99       1.0  0.93797  0.26963  0.55723  1.0000
  C   C153      1.0  0.94687  0.08693  0.53453  1.0000
  H   H100      1.0  0.45357  0.42293  0.71183  1.0000
  C   C154      1.0  0.45957  0.33823  0.70806  1.0000
  H   H101      1.0  0.50137  0.35463  0.71533  1.0000
  C   C155      1.0  0.42697  0.27393  0.69951  1.0000
  C   C156      1.0  0.36619  0.25105  0.68857  1.0000
  H   H102      1.0  0.34347  0.20683  0.68283  1.0000
  C   C157      1.0  0.45857  0.23174  0.70255  1.0000
  O   O37       1.0  0.51431  0.25601  0.71049  1.0000
  O   O38       1.0  0.42358  0.17094  0.69599  1.0000
  O   O39       1.0  0.96601  0.36087  0.69759  1.0000
  O   O40       1.0  0.01507  0.47063  0.69594  1.0000
  N   N19       1.0  0.34076  0.39552  0.69413  1.0000
  N   N20       1.0  0.26742  0.42701  0.69254  1.0000
  C   C158      1.0  0.01731  0.41929  0.69628  1.0000
  C   C159      1.0  0.08265  0.42028  0.69489  1.0000
  C   C160      1.0  0.14216  0.48077  0.69607  1.0000
  H   H103      1.0  0.14107  0.52113  0.69753  1.0000
  C   C161      1.0  0.20293  0.48293  0.69516  1.0000
  H   H104      1.0  0.24347  0.52453  0.69583  1.0000
  C   C162      1.0  0.20432  0.42450  0.69320  1.0000
  C   C163      1.0  0.14578  0.36423  0.69072  1.0000
  H   H105      1.0  0.14717  0.32443  0.68803  1.0000
  C   C164      1.0  0.08509  0.36215  0.69220  1.0000
  H   H106      1.0  0.04477  0.32043  0.69133  1.0000
  C   C165      1.0  0.33009  0.48442  0.69347  1.0000
  H   H107      1.0  0.33887  0.52923  0.69353  1.0000
  C   C166      1.0  0.37502  0.46502  0.69423  1.0000
  H   H108      1.0  0.42217  0.49343  0.69473  1.0000
  C   C167      1.0  0.27604  0.37379  0.69247  1.0000
  H   H109      1.0  0.24157  0.32833  0.69143  1.0000
  C   C168      1.0  0.37060  0.35398  0.69535  1.0000
  C   C169      1.0  0.33855  0.29092  0.68595  1.0000
  H   H110      1.0  0.29817  0.27563  0.67783  1.0000
  C   C170      1.0  0.43133  0.37876  0.70600  1.0000
  O   O41       1.0  0.16100  0.43908  0.98621  1.0000
  O   O42       1.0  0.22191  0.49507  0.01567  1.0000
  O   O43       1.0  0.60753  0.37107  0.87244  1.0000
  O   O44       1.0  0.64453  0.44837  0.85015  1.0000
  N   N21       1.0  0.45418  0.56344  0.94596  1.0000
  N   N22       1.0  0.52173  0.55333  0.92343  1.0000
  C   C171      1.0  0.21517  0.47609  0.99550  1.0000
  C   C172      1.0  0.27846  0.50238  0.98232  1.0000
  C   C173      1.0  0.27549  0.47858  0.96072  1.0000
  H   H111      1.0  0.23363  0.44767  0.95437  1.0000
  C   C174      1.0  0.33333  0.50007  0.94870  1.0000
  H   H112      1.0  0.33183  0.48427  0.93397  1.0000
  C   C175      1.0  0.39398  0.54505  0.95839  1.0000
  C   C176      1.0  0.39832  0.57012  0.97904  1.0000
  H   H113      1.0  0.44043  0.60217  0.98507  1.0000
  C   C177      1.0  0.33950  0.54804  0.99147  1.0000
  H   H114      1.0  0.34153  0.56437  0.00617  1.0000
  C   C178      1.0  0.51053  0.62477  0.94415  1.0000
  H   H115      1.0  0.51813  0.66427  0.95157  1.0000
  C   C179      1.0  0.55283  0.62017  0.93031  1.0000
  H   H116      1.0  0.59563  0.65517  0.92597  1.0000
  C   C180      1.0  0.46213  0.52107  0.93329  1.0000
  H   H117      1.0  0.43043  0.47507  0.93147  1.0000
  C   C181      1.0  0.54613  0.52137  0.90922  1.0000
  C   C182      1.0  0.52823  0.45777  0.91271  1.0000
  H   H118      1.0  0.49943  0.43387  0.92477  1.0000
  C   C183      1.0  0.55223  0.42677  0.89856  1.0000
  H   H119      1.0  0.53843  0.38107  0.90097  1.0000
  C   C184      1.0  0.59163  0.45697  0.88260  1.0000
  C   C185      1.0  0.60863  0.52377  0.87707  1.0000
  H   H120      1.0  0.63223  0.54477  0.86377  1.0000
  C   C186      1.0  0.58873  0.55647  0.89214  1.0000
  H   H121      1.0  0.60463  0.60297  0.89057  1.0000
  C   C187      1.0  0.61353  0.42027  0.86787  1.0000
  O   O45       1.0  0.18097  0.58935  0.04383  1.0000
  O   O46       1.0  0.09024  0.50428  0.02933  1.0000
  O   O47       1.0  0.63267  0.69421  0.03093  1.0000
  O   O48       1.0  0.68173  0.80397  0.02928  1.0000
  N   N23       1.0  0.00742  0.72886  0.02747  1.0000
  N   N24       1.0  0.93408  0.76035  0.02588  1.0000
  C   C188      1.0  0.68397  0.75263  0.02962  1.0000
  C   C189      1.0  0.74931  0.75362  0.02823  1.0000
  C   C190      1.0  0.80882  0.81411  0.02941  1.0000
  H   H122      1.0  0.80773  0.85447  0.03087  1.0000
  C   C191      1.0  0.86959  0.81627  0.02850  1.0000
  H   H123      1.0  0.91013  0.85787  0.02917  1.0000
  C   C192      1.0  0.87098  0.75784  0.02654  1.0000
  C   C193      1.0  0.81244  0.69757  0.02406  1.0000
  H   H124      1.0  0.81383  0.65777  0.02137  1.0000
  C   C194      1.0  0.75175  0.69549  0.02554  1.0000
  H   H125      1.0  0.71143  0.65377  0.02467  1.0000
  C   C195      1.0  0.99675  0.81776  0.02681  1.0000
  H   H126      1.0  0.00553  0.86257  0.02687  1.0000
  C   C196      1.0  0.04168  0.79836  0.02757  1.0000
  H   H127      1.0  0.08883  0.82677  0.02807  1.0000
  C   C197      1.0  0.94270  0.70713  0.02581  1.0000
  H   H128      1.0  0.90823  0.66167  0.02477  1.0000
  C   C198      1.0  0.03726  0.68732  0.02869  1.0000
  C   C199      1.0  0.00521  0.62426  0.01929  1.0000
  H   H129      1.0  0.96483  0.60897  0.01117  1.0000
  C   C200      1.0  0.09799  0.71210  0.03934  1.0000
  H   H130      1.0  0.12023  0.75627  0.04517  1.0000
  C   C201      1.0  0.12623  0.67157  0.04140  1.0000
  H   H131      1.0  0.16803  0.68797  0.04867  1.0000
  C   C202      1.0  0.09363  0.60727  0.03285  1.0000
  C   C203      1.0  0.03285  0.58439  0.02191  1.0000
  H   H132      1.0  0.01013  0.54017  0.01617  1.0000
  C   C204      1.0  0.12523  0.56508  0.03589  1.0000
  C   C205      1.0  0.14530  0.35810  0.24255  1.0000
  C   C206      1.0  0.20890  0.40380  0.24604  1.0000
  H   H133      1.0  0.23280  0.39890  0.25810  1.0000
  C   C207      1.0  0.23990  0.45880  0.23189  1.0000
  H   H134      1.0  0.28560  0.49070  0.23430  1.0000
  C   C208      1.0  0.20970  0.46800  0.21593  1.0000
  C   C209      1.0  0.14290  0.41820  0.21040  1.0000
  H   H135      1.0  0.12190  0.42080  0.19710  1.0000
  C   C210      1.0  0.11020  0.36560  0.22547  1.0000
  H   H136      1.0  0.06370  0.33500  0.22390  1.0000
  C   C211      1.0  0.24640  0.52660  0.20120  1.0000
  O   O49       1.0  0.22759  0.05526  0.31954  1.0000
  O   O50       1.0  0.17160  0.06018  0.34900  1.0000
  O   O51       1.0  0.29560  0.56980  0.20577  1.0000
  O   O52       1.0  0.21830  0.52950  0.18348  1.0000
  N   N25       1.0  0.10323  0.22408  0.27929  1.0000
  N   N26       1.0  0.11334  0.30174  0.25676  1.0000
  C   C212      1.0  0.19058  0.07242  0.32883  1.0000
  C   C213      1.0  0.16429  0.10942  0.31565  1.0000
  C   C214      1.0  0.18809  0.13025  0.29405  1.0000
  H   H137      1.0  0.21900  0.11930  0.28770  1.0000
  C   C215      1.0  0.16660  0.16660  0.28203  1.0000
  H   H138      1.0  0.18240  0.18090  0.26730  1.0000
  C   C216      1.0  0.12162  0.18227  0.29172  1.0000
  C   C217      1.0  0.09655  0.16154  0.31237  1.0000
  H   H139      1.0  0.06450  0.17160  0.31840  1.0000
  C   C218      1.0  0.11863  0.12480  0.32480  1.0000
  H   H140      1.0  0.10230  0.11050  0.33950  1.0000
  C   C219      1.0  0.04190  0.21910  0.27748  1.0000
  H   H141      1.0  0.00240  0.18720  0.28490  1.0000
  C   C220      1.0  0.04650  0.26600  0.26364  1.0000
  H   H142      1.0  0.01150  0.27380  0.25930  1.0000
  C   C221      1.0  0.14560  0.27440  0.26662  1.0000
  H   H143      1.0  0.19160  0.28870  0.26480  1.0000
  C   C222      1.0  0.91404  0.26468  0.36295  1.0000
  C   C223      1.0  0.91305  0.32903  0.36156  1.0000
  C   C224      1.0  0.85256  0.32805  0.36274  1.0000
  H   H144      1.0  0.81220  0.28660  0.36420  1.0000
  C   C225      1.0  0.85040  0.38666  0.36183  1.0000
  H   H145      1.0  0.80880  0.38560  0.36250  1.0000
  C   C226      1.0  0.90883  0.44648  0.35987  1.0000
  C   C227      1.0  0.96910  0.44821  0.35739  1.0000
  H   H146      1.0  0.00890  0.48940  0.35470  1.0000
  C   C228      1.0  0.97118  0.38960  0.35887  1.0000
  H   H147      1.0  0.01290  0.39100  0.35800  1.0000
  C   C229      1.0  0.84891  0.51233  0.36014  1.0000
  H   H148      1.0  0.80410  0.47630  0.36020  1.0000
  C   C230      1.0  0.86831  0.57666  0.36090  1.0000
  H   H149      1.0  0.83990  0.59540  0.36140  1.0000
  C   C231      1.0  0.95954  0.56891  0.35914  1.0000
  H   H150      1.0  0.00500  0.57990  0.35810  1.0000
  C   C232      1.0  0.97935  0.68328  0.36202  1.0000
  C   C233      1.0  0.04241  0.71429  0.35262  1.0000
  H   H151      1.0  0.05770  0.68920  0.34450  1.0000
  C   C234      1.0  0.95457  0.71923  0.37267  1.0000
  H   H152      1.0  0.91040  0.69730  0.37850  1.0000
  C   C235      1.0  0.99510  0.78800  0.37473  1.0000
  H   H153      1.0  0.97870  0.81340  0.38200  1.0000
  C   C236      1.0  0.05940  0.81970  0.36618  1.0000
  C   C237      1.0  0.08228  0.78180  0.35524  1.0000
  H   H154      1.0  0.12650  0.80330  0.34950  1.0000
  C   C238      1.0  0.10159  0.89349  0.36922  1.0000
  O   O53       1.0  0.07732  0.92496  0.37716  1.0000
  O   O54       1.0  0.16239  0.91930  0.36266  1.0000
  O   O55       1.0  0.97246  0.27180  0.36426  1.0000
  O   O56       1.0  0.86270  0.21110  0.36261  1.0000
  N   N27       1.0  0.93781  0.61190  0.36080  1.0000
  N   N28       1.0  0.90632  0.50707  0.35921  1.0000
  O   O57       1.0  0.89426  0.38859  0.65287  1.0000
  O   O58       1.0  0.83827  0.39351  0.68233  1.0000
  O   O59       1.0  0.96227  0.90313  0.53910  1.0000
  O   O60       1.0  0.88497  0.86283  0.51681  1.0000
  N   N29       1.0  0.76990  0.55741  0.61262  1.0000
  N   N30       1.0  0.78001  0.63507  0.59009  1.0000
  C   C239      1.0  0.85725  0.40575  0.66216  1.0000
  C   C240      1.0  0.83096  0.44275  0.64898  1.0000
  C   C241      1.0  0.85476  0.46358  0.62738  1.0000
  H   H155      1.0  0.88567  0.45263  0.62103  1.0000
  C   C242      1.0  0.83327  0.49993  0.61536  1.0000
  H   H156      1.0  0.84907  0.51423  0.60063  1.0000
  C   C243      1.0  0.78829  0.51560  0.62505  1.0000
  C   C244      1.0  0.76322  0.49487  0.64570  1.0000
  H   H157      1.0  0.73117  0.50493  0.65173  1.0000
  C   C245      1.0  0.78530  0.45813  0.65813  1.0000
  H   H158      1.0  0.76897  0.44383  0.67283  1.0000
  C   C246      1.0  0.70857  0.55243  0.61081  1.0000
  H   H159      1.0  0.66907  0.52053  0.61823  1.0000
  C   C247      1.0  0.71317  0.59933  0.59697  1.0000
  H   H160      1.0  0.67817  0.60713  0.59263  1.0000
  C   C248      1.0  0.81227  0.60773  0.59995  1.0000
  H   H161      1.0  0.85827  0.62203  0.59813  1.0000
  C   C249      1.0  0.81197  0.69143  0.57588  1.0000
  C   C250      1.0  0.87557  0.73713  0.57937  1.0000
  H   H162      1.0  0.89947  0.73223  0.59143  1.0000
  C   C251      1.0  0.90657  0.79213  0.56522  1.0000
  H   H163      1.0  0.95227  0.82403  0.56763  1.0000
  C   C252      1.0  0.87637  0.80133  0.54926  1.0000
  C   C253      1.0  0.80957  0.75153  0.54373  1.0000
  H   H164      1.0  0.78857  0.75413  0.53043  1.0000
  C   C254      1.0  0.77687  0.69893  0.55880  1.0000
  H   H165      1.0  0.73037  0.66833  0.55723  1.0000
  C   C255      1.0  0.91307  0.85993  0.53453  1.0000
  O   O61       1.0  0.74399  0.25829  0.71049  1.0000
  O   O62       1.0  0.82906  0.25263  0.69599  1.0000
  O   O63       1.0  0.63913  0.60513  0.69759  1.0000
  O   O64       1.0  0.52937  0.54443  0.69594  1.0000
  N   N31       1.0  0.60448  0.94523  0.69413  1.0000
  N   N32       1.0  0.57299  0.84040  0.69254  1.0000
  C   C256      1.0  0.58071  0.59801  0.69628  1.0000
  C   C257      1.0  0.57972  0.66236  0.69489  1.0000
  C   C258      1.0  0.51923  0.66138  0.69607  1.0000
  H   H166      1.0  0.47887  0.61993  0.69753  1.0000
  C   C259      1.0  0.51707  0.71999  0.69516  1.0000
  H   H167      1.0  0.47547  0.71893  0.69583  1.0000
  C   C260      1.0  0.57550  0.77981  0.69320  1.0000
  C   C261      1.0  0.63577  0.78154  0.69072  1.0000
  H   H168      1.0  0.67557  0.82273  0.68803  1.0000
  C   C262      1.0  0.63785  0.72293  0.69220  1.0000
  H   H169      1.0  0.67957  0.72433  0.69133  1.0000
  C   C263      1.0  0.51558  0.84566  0.69347  1.0000
  H   H170      1.0  0.47077  0.80963  0.69353  1.0000
  C   C264      1.0  0.53498  0.90999  0.69423  1.0000
  H   H171      1.0  0.50657  0.92873  0.69473  1.0000
  C   C265      1.0  0.62621  0.90224  0.69247  1.0000
  H   H172      1.0  0.67167  0.91323  0.69143  1.0000
  C   C266      1.0  0.64602  0.01661  0.69535  1.0000
  C   C267      1.0  0.70908  0.04762  0.68595  1.0000
  H   H173      1.0  0.72437  0.02253  0.67783  1.0000
  C   C268      1.0  0.62124  0.05256  0.70600  1.0000
  H   H174      1.0  0.57707  0.03063  0.71183  1.0000
  C   C269      1.0  0.66177  0.12133  0.70806  1.0000
  H   H175      1.0  0.64537  0.14673  0.71533  1.0000
  C   C270      1.0  0.72607  0.15303  0.69951  1.0000
  C   C271      1.0  0.74895  0.11513  0.68857  1.0000
  H   H176      1.0  0.79317  0.13663  0.68283  1.0000
  C   C272      1.0  0.76826  0.22682  0.70255  1.0000
  O   O65       1.0  0.56092  0.72193  0.98621  1.0000
  O   O66       1.0  0.50493  0.72685  0.01567  1.0000
  O   O67       1.0  0.62893  0.23647  0.87244  1.0000
  O   O68       1.0  0.55163  0.19617  0.85015  1.0000
  N   N33       1.0  0.43656  0.89075  0.94596  1.0000
  N   N34       1.0  0.44667  0.96841  0.92343  1.0000
  C   C273      1.0  0.52391  0.73909  0.99550  1.0000
  C   C274      1.0  0.49762  0.77609  0.98232  1.0000
  C   C275      1.0  0.52142  0.79692  0.96072  1.0000
  H   H177      1.0  0.55233  0.78597  0.95437  1.0000
  C   C276      1.0  0.49993  0.83327  0.94870  1.0000
  H   H178      1.0  0.51573  0.84757  0.93397  1.0000
  C   C277      1.0  0.45495  0.84894  0.95839  1.0000
  C   C278      1.0  0.42988  0.82821  0.97904  1.0000
  H   H179      1.0  0.39783  0.83827  0.98507  1.0000
  C   C279      1.0  0.45196  0.79147  0.99147  1.0000
  H   H180      1.0  0.43563  0.77717  0.00617  1.0000
  C   C280      1.0  0.37523  0.88577  0.94415  1.0000
  H   H181      1.0  0.33573  0.85387  0.95157  1.0000
  C   C281      1.0  0.37983  0.93267  0.93031  1.0000
  H   H182      1.0  0.34483  0.94047  0.92597  1.0000
  C   C282      1.0  0.47893  0.94107  0.93329  1.0000
  H   H183      1.0  0.52493  0.95537  0.93147  1.0000
  C   C283      1.0  0.47863  0.02477  0.90922  1.0000
  C   C284      1.0  0.54223  0.07047  0.91271  1.0000
  H   H184      1.0  0.56613  0.06557  0.92477  1.0000
  C   C285      1.0  0.57323  0.12547  0.89856  1.0000
  H   H185      1.0  0.61893  0.15737  0.90097  1.0000
  C   C286      1.0  0.54303  0.13467  0.88260  1.0000
  C   C287      1.0  0.47623  0.08487  0.87707  1.0000
  H   H186      1.0  0.45523  0.08747  0.86377  1.0000
  C   C288      1.0  0.44353  0.03227  0.89214  1.0000
  H   H187      1.0  0.39703  0.00167  0.89057  1.0000
  C   C289      1.0  0.57973  0.19327  0.86787  1.0000
  O   O69       1.0  0.41065  0.59163  0.04383  1.0000
  O   O70       1.0  0.49572  0.58597  0.02933  1.0000
  O   O71       1.0  0.30579  0.93847  0.03093  1.0000
  O   O72       1.0  0.19603  0.87777  0.02928  1.0000
  N   N35       1.0  0.27114  0.27857  0.02747  1.0000
  N   N36       1.0  0.23965  0.17374  0.02588  1.0000
  C   C290      1.0  0.24737  0.93135  0.02962  1.0000
  C   C291      1.0  0.24638  0.99570  0.02823  1.0000
  C   C292      1.0  0.18589  0.99472  0.02941  1.0000
  H   H188      1.0  0.14553  0.95327  0.03087  1.0000
  C   C293      1.0  0.18373  0.05333  0.02850  1.0000
  H   H189      1.0  0.14213  0.05227  0.02917  1.0000
  C   C294      1.0  0.24216  0.11315  0.02654  1.0000
  C   C295      1.0  0.30243  0.11488  0.02406  1.0000
  H   H190      1.0  0.34223  0.15607  0.02137  1.0000
  C   C296      1.0  0.30451  0.05627  0.02554  1.0000
  H   H191      1.0  0.34623  0.05767  0.02467  1.0000
  C   C297      1.0  0.18224  0.17900  0.02681  1.0000
  H   H192      1.0  0.13743  0.14297  0.02687  1.0000
  C   C298      1.0  0.20164  0.24333  0.02757  1.0000
  H   H193      1.0  0.17323  0.26207  0.02807  1.0000
  C   C299      1.0  0.29287  0.23558  0.02581  1.0000
  H   H194      1.0  0.33833  0.24657  0.02477  1.0000
  C   C300      1.0  0.31268  0.34995  0.02869  1.0000
  C   C301      1.0  0.37574  0.38096  0.01929  1.0000
  H   H195      1.0  0.39103  0.35587  0.01117  1.0000
  C   C302      1.0  0.28790  0.38590  0.03934  1.0000
  H   H196      1.0  0.24373  0.36397  0.04517  1.0000
  C   C303      1.0  0.32843  0.45467  0.04140  1.0000
  H   H197      1.0  0.31203  0.48007  0.04867  1.0000
  C   C304      1.0  0.39273  0.48637  0.03285  1.0000
  C   C305      1.0  0.41561  0.44847  0.02191  1.0000
  H   H198      1.0  0.45983  0.46997  0.01617  1.0000
  C   C306      1.0  0.43492  0.56016  0.03589  1.0000
  O   O73       1.0  0.05526  0.82767  0.68046  1.0000
  O   O74       1.0  0.06018  0.88858  0.65100  1.0000
  O   O75       1.0  0.56980  0.27420  0.79423  1.0000
  O   O76       1.0  0.52950  0.31120  0.81652  1.0000
  N   N37       1.0  0.22408  0.12085  0.72071  1.0000
  N   N38       1.0  0.30174  0.18840  0.74324  1.0000
  C   C307      1.0  0.07242  0.88184  0.67117  1.0000
  C   C308      1.0  0.10942  0.94513  0.68435  1.0000
  C   C309      1.0  0.13025  0.94216  0.70595  1.0000
  H   H199      1.0  0.11930  0.90030  0.71230  1.0000
  C   C310      1.0  0.16660  0.00000  0.71797  1.0000
  H   H200      1.0  0.18090  0.99850  0.73270  1.0000
  C   C311      1.0  0.18227  0.06065  0.70828  1.0000
  C   C312      1.0  0.16154  0.06499  0.68763  1.0000
  H   H201      1.0  0.17160  0.10710  0.68160  1.0000
  C   C313      1.0  0.12480  0.00617  0.67520  1.0000
  H   H202      1.0  0.11050  0.00820  0.66050  1.0000
  C   C314      1.0  0.21910  0.17720  0.72252  1.0000
  H   H203      1.0  0.18720  0.18480  0.71510  1.0000
  C   C315      1.0  0.26600  0.21950  0.73636  1.0000
  H   H204      1.0  0.27380  0.26230  0.74070  1.0000
  C   C316      1.0  0.27440  0.12880  0.73338  1.0000
  H   H205      1.0  0.28870  0.09710  0.73520  1.0000
  C   C317      1.0  0.35810  0.21280  0.75745  1.0000
  C   C318      1.0  0.40380  0.19490  0.75396  1.0000
  H   H206      1.0  0.39890  0.16610  0.74190  1.0000
  C   C319      1.0  0.45880  0.21890  0.76811  1.0000
  H   H207      1.0  0.49070  0.20510  0.76570  1.0000
  C   C320      1.0  0.46800  0.25830  0.78407  1.0000
  C   C321      1.0  0.41820  0.27530  0.78960  1.0000
  H   H208      1.0  0.42080  0.29890  0.80290  1.0000
  C   C322      1.0  0.36560  0.25540  0.77453  1.0000
  H   H209      1.0  0.33500  0.27130  0.77610  1.0000
  C   C323      1.0  0.52660  0.28020  0.79880  1.0000
  H   H210      1.0  0.38560  0.57680  0.63750  1.0000
  C   C324      1.0  0.44648  0.53765  0.64013  1.0000
  C   C325      1.0  0.44821  0.47911  0.64261  1.0000
  H   H211      1.0  0.48940  0.48050  0.64530  1.0000
  C   C326      1.0  0.38960  0.41842  0.64113  1.0000
  H   H212      1.0  0.39100  0.37810  0.64200  1.0000
  C   C327      1.0  0.51233  0.66342  0.63986  1.0000
  H   H213      1.0  0.47630  0.67220  0.63980  1.0000
  C   C328      1.0  0.57666  0.70835  0.63910  1.0000
  H   H214      1.0  0.59540  0.75550  0.63860  1.0000
  C   C329      1.0  0.56891  0.60937  0.64086  1.0000
  H   H215      1.0  0.57990  0.57490  0.64190  1.0000
  C   C330      1.0  0.68328  0.70393  0.63798  1.0000
  C   C331      1.0  0.71429  0.67188  0.64738  1.0000
  H   H216      1.0  0.68920  0.63150  0.65550  1.0000
  C   C332      1.0  0.71923  0.76466  0.62733  1.0000
  H   H217      1.0  0.69730  0.78690  0.62150  1.0000
  C   C333      1.0  0.78800  0.79290  0.62527  1.0000
  H   H218      1.0  0.81340  0.83470  0.61800  1.0000
  C   C334      1.0  0.81970  0.76030  0.63382  1.0000
  C   C335      1.0  0.78180  0.69952  0.64476  1.0000
  H   H219      1.0  0.80330  0.67680  0.65050  1.0000
  C   C336      1.0  0.89349  0.79190  0.63078  1.0000
  O   O77       1.0  0.92496  0.84764  0.62284  1.0000
  O   O78       1.0  0.91930  0.75691  0.63734  1.0000
  O   O79       1.0  0.27180  0.29934  0.63574  1.0000
  O   O80       1.0  0.21110  0.34840  0.63739  1.0000
  N   N39       1.0  0.61190  0.67409  0.63920  1.0000
  N   N40       1.0  0.50707  0.60075  0.64079  1.0000
  C   C337      1.0  0.26468  0.35064  0.63705  1.0000
  C   C338      1.0  0.32903  0.41598  0.63844  1.0000
  C   C339      1.0  0.32805  0.47549  0.63726  1.0000
  H   H220      1.0  0.28660  0.47440  0.63580  1.0000
  C   C340      1.0  0.38666  0.53626  0.63817  1.0000
  O   O81       1.0  0.72193  0.16100  0.01379  1.0000
  O   O82       1.0  0.72685  0.22191  0.98433  1.0000
  O   O83       1.0  0.23647  0.60753  0.12756  1.0000
  O   O84       1.0  0.19617  0.64453  0.14985  1.0000
  N   N41       1.0  0.89075  0.45418  0.05404  1.0000
  N   N42       1.0  0.96841  0.52173  0.07657  1.0000
  C   C341      1.0  0.73909  0.21517  0.00450  1.0000
  C   C342      1.0  0.77609  0.27846  0.01768  1.0000
  C   C343      1.0  0.79692  0.27549  0.03928  1.0000
  H   H221      1.0  0.78597  0.23363  0.04563  1.0000
  C   C344      1.0  0.83327  0.33333  0.05130  1.0000
  H   H222      1.0  0.84757  0.33183  0.06603  1.0000
  C   C345      1.0  0.84894  0.39398  0.04161  1.0000
  C   C346      1.0  0.82821  0.39832  0.02096  1.0000
  H   H223      1.0  0.83827  0.44043  0.01493  1.0000
  C   C347      1.0  0.79147  0.33950  0.00853  1.0000
  H   H224      1.0  0.77717  0.34153  0.99383  1.0000
  C   C348      1.0  0.88577  0.51053  0.05585  1.0000
  H   H225      1.0  0.85387  0.51813  0.04843  1.0000
  C   C349      1.0  0.93267  0.55283  0.06969  1.0000
  H   H226      1.0  0.94047  0.59563  0.07403  1.0000
  C   C350      1.0  0.94107  0.46213  0.06671  1.0000
  H   H227      1.0  0.95537  0.43043  0.06853  1.0000
  C   C351      1.0  0.02477  0.54613  0.09078  1.0000
  C   C352      1.0  0.07047  0.52823  0.08729  1.0000
  H   H228      1.0  0.06557  0.49943  0.07523  1.0000
  C   C353      1.0  0.12547  0.55223  0.10144  1.0000
  H   H229      1.0  0.15737  0.53843  0.09903  1.0000
  C   C354      1.0  0.13467  0.59163  0.11740  1.0000
  C   C355      1.0  0.08487  0.60863  0.12293  1.0000
  H   H230      1.0  0.08747  0.63223  0.13623  1.0000
  C   C356      1.0  0.03227  0.58873  0.10786  1.0000
  H   H231      1.0  0.00167  0.60463  0.10943  1.0000
  C   C357      1.0  0.19327  0.61353  0.13213  1.0000
  O   O85       1.0  0.59163  0.18097  0.95617  1.0000
  O   O86       1.0  0.58597  0.09024  0.97067  1.0000
  O   O87       1.0  0.93847  0.63267  0.96907  1.0000
  O   O88       1.0  0.87777  0.68173  0.97072  1.0000
  N   N43       1.0  0.27857  0.00742  0.97253  1.0000
  N   N44       1.0  0.17374  0.93408  0.97412  1.0000
  C   C358      1.0  0.93135  0.68397  0.97038  1.0000
  C   C359      1.0  0.99570  0.74931  0.97177  1.0000
  C   C360      1.0  0.99472  0.80882  0.97059  1.0000
  H   H232      1.0  0.95327  0.80773  0.96913  1.0000
  C   C361      1.0  0.05333  0.86959  0.97150  1.0000
  H   H233      1.0  0.05227  0.91013  0.97083  1.0000
  C   C362      1.0  0.11315  0.87098  0.97346  1.0000
  C   C363      1.0  0.11488  0.81244  0.97594  1.0000
  H   H234      1.0  0.15607  0.81383  0.97863  1.0000
  C   C364      1.0  0.05627  0.75175  0.97446  1.0000
  H   H235      1.0  0.05767  0.71143  0.97533  1.0000
  C   C365      1.0  0.17900  0.99675  0.97319  1.0000
  H   H236      1.0  0.14297  0.00553  0.97313  1.0000
  C   C366      1.0  0.24333  0.04168  0.97243  1.0000
  H   H237      1.0  0.26207  0.08883  0.97193  1.0000
  C   C367      1.0  0.23558  0.94270  0.97419  1.0000
  H   H238      1.0  0.24657  0.90823  0.97523  1.0000
  C   C368      1.0  0.34995  0.03726  0.97131  1.0000
  C   C369      1.0  0.38096  0.00521  0.98071  1.0000
  H   H239      1.0  0.35587  0.96483  0.98883  1.0000
  C   C370      1.0  0.38590  0.09799  0.96066  1.0000
  H   H240      1.0  0.36397  0.12023  0.95483  1.0000
  C   C371      1.0  0.45467  0.12623  0.95860  1.0000
  H   H241      1.0  0.48007  0.16803  0.95133  1.0000
  C   C372      1.0  0.48637  0.09363  0.96715  1.0000
  C   C373      1.0  0.44847  0.03285  0.97809  1.0000
  H   H242      1.0  0.46997  0.01013  0.98383  1.0000
  C   C374      1.0  0.56016  0.12523  0.96411  1.0000
  C   C375      1.0  0.44275  0.61180  0.35102  1.0000
  C   C376      1.0  0.46358  0.60883  0.37262  1.0000
  H   H243      1.0  0.45263  0.56697  0.37897  1.0000
  C   C377      1.0  0.49993  0.66667  0.38464  1.0000
  H   H244      1.0  0.51423  0.66517  0.39937  1.0000
  C   C378      1.0  0.51560  0.72732  0.37495  1.0000
  C   C379      1.0  0.49487  0.73166  0.35430  1.0000
  H   H245      1.0  0.50493  0.77377  0.34827  1.0000
  C   C380      1.0  0.45813  0.67284  0.34187  1.0000
  H   H246      1.0  0.44383  0.67487  0.32717  1.0000
  C   C381      1.0  0.55243  0.84387  0.38919  1.0000
  H   H247      1.0  0.52053  0.85147  0.38177  1.0000
  C   C382      1.0  0.59933  0.88617  0.40303  1.0000
  H   H248      1.0  0.60713  0.92897  0.40737  1.0000
  C   C383      1.0  0.60773  0.79547  0.40005  1.0000
  H   H249      1.0  0.62203  0.76377  0.40187  1.0000
  C   C384      1.0  0.69143  0.87947  0.42412  1.0000
  C   C385      1.0  0.73713  0.86157  0.42063  1.0000
  H   H250      1.0  0.73223  0.83277  0.40857  1.0000
  C   C386      1.0  0.79213  0.88557  0.43478  1.0000
  H   H251      1.0  0.82403  0.87177  0.43237  1.0000
  C   C387      1.0  0.80133  0.92497  0.45074  1.0000
  C   C388      1.0  0.75153  0.94197  0.45627  1.0000
  H   H252      1.0  0.75413  0.96557  0.46957  1.0000
  C   C389      1.0  0.69893  0.92207  0.44120  1.0000
  H   H253      1.0  0.66833  0.93797  0.44277  1.0000
  C   C390      1.0  0.85993  0.94687  0.46547  1.0000
  O   O89       1.0  0.38859  0.49434  0.34713  1.0000
  O   O90       1.0  0.39351  0.55525  0.31767  1.0000
  O   O91       1.0  0.90313  0.94087  0.46090  1.0000
  O   O92       1.0  0.86283  0.97787  0.48319  1.0000
  N   N45       1.0  0.55741  0.78752  0.38738  1.0000
  N   N46       1.0  0.63507  0.85507  0.40991  1.0000
  C   C391      1.0  0.40575  0.54851  0.33784  1.0000
  C   C392      1.0  0.59801  0.01731  0.30372  1.0000
  C   C393      1.0  0.66236  0.08265  0.30511  1.0000
  C   C394      1.0  0.66138  0.14216  0.30393  1.0000
  H   H254      1.0  0.61993  0.14107  0.30247  1.0000
  C   C395      1.0  0.71999  0.20293  0.30484  1.0000
  H   H255      1.0  0.71893  0.24347  0.30417  1.0000
  C   C396      1.0  0.77981  0.20432  0.30680  1.0000
  C   C397      1.0  0.78154  0.14578  0.30928  1.0000
  H   H256      1.0  0.82273  0.14717  0.31197  1.0000
  C   C398      1.0  0.72293  0.08509  0.30780  1.0000
  H   H257      1.0  0.72433  0.04477  0.30867  1.0000
  C   C399      1.0  0.84566  0.33009  0.30653  1.0000
  H   H258      1.0  0.80963  0.33887  0.30647  1.0000
  C   C400      1.0  0.90999  0.37502  0.30577  1.0000
  H   H259      1.0  0.92873  0.42217  0.30527  1.0000
  C   C401      1.0  0.90224  0.27604  0.30753  1.0000
  H   H260      1.0  0.91323  0.24157  0.30857  1.0000
  C   C402      1.0  0.01661  0.37060  0.30465  1.0000
  C   C403      1.0  0.04762  0.33855  0.31405  1.0000
  H   H261      1.0  0.02253  0.29817  0.32217  1.0000
  C   C404      1.0  0.05256  0.43133  0.29400  1.0000
  H   H262      1.0  0.03063  0.45357  0.28817  1.0000
  C   C405      1.0  0.12133  0.45957  0.29194  1.0000
  H   H263      1.0  0.14673  0.50137  0.28467  1.0000
  C   C406      1.0  0.15303  0.42697  0.30049  1.0000
  C   C407      1.0  0.11513  0.36619  0.31143  1.0000
  H   H264      1.0  0.13663  0.34347  0.31717  1.0000
  C   C408      1.0  0.22682  0.45857  0.29745  1.0000
  O   O93       1.0  0.25829  0.51431  0.28951  1.0000
  O   O94       1.0  0.25263  0.42358  0.30401  1.0000
  O   O95       1.0  0.60513  0.96601  0.30241  1.0000
  O   O96       1.0  0.54443  0.01507  0.30406  1.0000
  N   N47       1.0  0.94523  0.34076  0.30587  1.0000
  N   N48       1.0  0.84040  0.26742  0.30746  1.0000
  O   O97       1.0  0.17233  0.22759  0.68046  1.0000
  O   O98       1.0  0.11142  0.17160  0.65100  1.0000
  O   O99       1.0  0.72580  0.29560  0.79423  1.0000
  O   O100      1.0  0.68880  0.21830  0.81652  1.0000
  N   N49       1.0  0.87915  0.10323  0.72071  1.0000
  N   N50       1.0  0.81160  0.11334  0.74324  1.0000
  C   C409      1.0  0.11816  0.19058  0.67117  1.0000
  C   C410      1.0  0.05487  0.16429  0.68435  1.0000
  C   C411      1.0  0.05784  0.18809  0.70595  1.0000
  H   H265      1.0  0.09970  0.21900  0.71230  1.0000
  C   C412      1.0  0.00000  0.16660  0.71797  1.0000
  H   H266      1.0  0.00150  0.18240  0.73270  1.0000
  C   C413      1.0  0.93935  0.12162  0.70828  1.0000
  C   C414      1.0  0.93501  0.09655  0.68763  1.0000
  H   H267      1.0  0.89290  0.06450  0.68160  1.0000
  C   C415      1.0  0.99383  0.11863  0.67520  1.0000
  H   H268      1.0  0.99180  0.10230  0.66050  1.0000
  C   C416      1.0  0.82280  0.04190  0.72252  1.0000
  H   H269      1.0  0.81520  0.00240  0.71510  1.0000
  C   C417      1.0  0.78050  0.04650  0.73636  1.0000
  H   H270      1.0  0.73770  0.01150  0.74070  1.0000
  C   C418      1.0  0.87120  0.14560  0.73338  1.0000
  H   H271      1.0  0.90290  0.19160  0.73520  1.0000
  C   C419      1.0  0.78720  0.14530  0.75745  1.0000
  C   C420      1.0  0.80510  0.20890  0.75396  1.0000
  H   H272      1.0  0.83390  0.23280  0.74190  1.0000
  C   C421      1.0  0.78110  0.23990  0.76811  1.0000
  H   H273      1.0  0.79490  0.28560  0.76570  1.0000
  C   C422      1.0  0.74170  0.20970  0.78407  1.0000
  C   C423      1.0  0.72470  0.14290  0.78960  1.0000
  H   H274      1.0  0.70110  0.12190  0.80290  1.0000
  C   C424      1.0  0.74460  0.11020  0.77453  1.0000
  H   H275      1.0  0.72870  0.06370  0.77610  1.0000
  C   C425      1.0  0.71980  0.24640  0.79880  1.0000
  H   H276      1.0  0.21310  0.91040  0.62150  1.0000
  C   C426      1.0  0.20710  0.99510  0.62527  1.0000
  H   H277      1.0  0.16530  0.97870  0.61800  1.0000
  C   C427      1.0  0.23970  0.05940  0.63382  1.0000
  C   C428      1.0  0.30048  0.08228  0.64476  1.0000
  H   H278      1.0  0.32320  0.12650  0.65050  1.0000
  C   C429      1.0  0.20810  0.10159  0.63078  1.0000
  O   O101      1.0  0.15236  0.07732  0.62284  1.0000
  O   O102      1.0  0.24309  0.16239  0.63734  1.0000
  O   O103      1.0  0.70066  0.97246  0.63574  1.0000
  O   O104      1.0  0.65160  0.86270  0.63739  1.0000
  N   N51       1.0  0.32591  0.93781  0.63920  1.0000
  N   N52       1.0  0.39925  0.90632  0.64079  1.0000
  C   C430      1.0  0.64936  0.91404  0.63705  1.0000
  C   C431      1.0  0.58402  0.91305  0.63844  1.0000
  C   C432      1.0  0.52451  0.85256  0.63726  1.0000
  H   H279      1.0  0.52560  0.81220  0.63580  1.0000
  C   C433      1.0  0.46374  0.85040  0.63817  1.0000
  H   H280      1.0  0.42320  0.80880  0.63750  1.0000
  C   C434      1.0  0.46235  0.90883  0.64013  1.0000
  C   C435      1.0  0.52089  0.96910  0.64261  1.0000
  H   H281      1.0  0.51950  0.00890  0.64530  1.0000
  C   C436      1.0  0.58158  0.97118  0.64113  1.0000
  H   H282      1.0  0.62190  0.01290  0.64200  1.0000
  C   C437      1.0  0.33658  0.84891  0.63986  1.0000
  H   H283      1.0  0.32780  0.80410  0.63980  1.0000
  C   C438      1.0  0.29165  0.86831  0.63910  1.0000
  H   H284      1.0  0.24450  0.83990  0.63860  1.0000
  C   C439      1.0  0.39063  0.95954  0.64086  1.0000
  H   H285      1.0  0.42510  0.00500  0.64190  1.0000
  C   C440      1.0  0.29607  0.97935  0.63798  1.0000
  C   C441      1.0  0.32812  0.04241  0.64738  1.0000
  H   H286      1.0  0.36850  0.05770  0.65550  1.0000
  C   C442      1.0  0.23534  0.95457  0.62733  1.0000
  O   O105      1.0  0.83900  0.56092  0.01379  1.0000
  O   O106      1.0  0.77809  0.50493  0.98433  1.0000
  O   O107      1.0  0.39247  0.62893  0.12756  1.0000
  O   O108      1.0  0.35547  0.55163  0.14985  1.0000
  N   N53       1.0  0.54582  0.43656  0.05404  1.0000
  N   N54       1.0  0.47827  0.44667  0.07657  1.0000
  C   C443      1.0  0.78483  0.52391  0.00450  1.0000
  C   C444      1.0  0.72154  0.49762  0.01768  1.0000
  C   C445      1.0  0.72451  0.52142  0.03928  1.0000
  H   H287      1.0  0.76637  0.55233  0.04563  1.0000
  C   C446      1.0  0.66667  0.49993  0.05130  1.0000
  H   H288      1.0  0.66817  0.51573  0.06603  1.0000
  C   C447      1.0  0.60602  0.45495  0.04161  1.0000
  C   C448      1.0  0.60168  0.42988  0.02096  1.0000
  H   H289      1.0  0.55957  0.39783  0.01493  1.0000
  C   C449      1.0  0.66050  0.45196  0.00853  1.0000
  H   H290      1.0  0.65847  0.43563  0.99383  1.0000
  C   C450      1.0  0.48947  0.37523  0.05585  1.0000
  H   H291      1.0  0.48187  0.33573  0.04843  1.0000
  C   C451      1.0  0.44717  0.37983  0.06969  1.0000
  H   H292      1.0  0.40437  0.34483  0.07403  1.0000
  C   C452      1.0  0.53787  0.47893  0.06671  1.0000
  H   H293      1.0  0.56957  0.52493  0.06853  1.0000
  C   C453      1.0  0.45387  0.47863  0.09078  1.0000
  C   C454      1.0  0.47177  0.54223  0.08729  1.0000
  H   H294      1.0  0.50057  0.56613  0.07523  1.0000
  C   C455      1.0  0.44777  0.57323  0.10144  1.0000
  H   H295      1.0  0.46157  0.61893  0.09903  1.0000
  C   C456      1.0  0.40837  0.54303  0.11740  1.0000
  C   C457      1.0  0.39137  0.47623  0.12293  1.0000
  H   H296      1.0  0.36777  0.45523  0.13623  1.0000
  C   C458      1.0  0.41127  0.44353  0.10786  1.0000
  H   H297      1.0  0.39537  0.39703  0.10943  1.0000
  C   C459      1.0  0.38647  0.57973  0.13213  1.0000
  O   O109      1.0  0.81903  0.41065  0.95617  1.0000
  O   O110      1.0  0.90976  0.49572  0.97067  1.0000
  O   O111      1.0  0.36733  0.30579  0.96907  1.0000
  O   O112      1.0  0.31827  0.19603  0.97072  1.0000
  N   N55       1.0  0.99258  0.27114  0.97253  1.0000
  N   N56       1.0  0.06592  0.23965  0.97412  1.0000
  C   C460      1.0  0.31603  0.24737  0.97038  1.0000
  C   C461      1.0  0.25069  0.24638  0.97177  1.0000
  C   C462      1.0  0.19118  0.18589  0.97059  1.0000
  H   H298      1.0  0.19227  0.14553  0.96913  1.0000
  C   C463      1.0  0.13041  0.18373  0.97150  1.0000
  H   H299      1.0  0.08987  0.14213  0.97083  1.0000
  C   C464      1.0  0.12902  0.24216  0.97346  1.0000
  C   C465      1.0  0.18756  0.30243  0.97594  1.0000
  H   H300      1.0  0.18617  0.34223  0.97863  1.0000
  C   C466      1.0  0.24825  0.30451  0.97446  1.0000
  H   H301      1.0  0.28857  0.34623  0.97533  1.0000
  C   C467      1.0  0.00325  0.18224  0.97319  1.0000
  H   H302      1.0  0.99447  0.13743  0.97313  1.0000
  C   C468      1.0  0.95832  0.20164  0.97243  1.0000
  H   H303      1.0  0.91117  0.17323  0.97193  1.0000
  C   C469      1.0  0.05730  0.29287  0.97419  1.0000
  H   H304      1.0  0.09177  0.33833  0.97523  1.0000
  C   C470      1.0  0.96274  0.31268  0.97131  1.0000
  C   C471      1.0  0.99479  0.37574  0.98071  1.0000
  H   H305      1.0  0.03517  0.39103  0.98883  1.0000
  C   C472      1.0  0.90201  0.28790  0.96066  1.0000
  H   H306      1.0  0.87977  0.24373  0.95483  1.0000
  C   C473      1.0  0.87377  0.32843  0.95860  1.0000
  H   H307      1.0  0.83197  0.31203  0.95133  1.0000
  C   C474      1.0  0.90637  0.39273  0.96715  1.0000
  C   C475      1.0  0.96715  0.41561  0.97809  1.0000
  H   H308      1.0  0.98987  0.45983  0.98383  1.0000
  C   C476      1.0  0.87477  0.43492  0.96411  1.0000
  C   C477      1.0  0.12053  0.81197  0.42412  1.0000
  C   C478      1.0  0.13843  0.87557  0.42063  1.0000
  H   H309      1.0  0.16723  0.89947  0.40857  1.0000
  C   C479      1.0  0.11443  0.90657  0.43478  1.0000
  H   H310      1.0  0.12823  0.95227  0.43237  1.0000
  C   C480      1.0  0.07503  0.87637  0.45074  1.0000
  C   C481      1.0  0.05803  0.80957  0.45627  1.0000
  H   H311      1.0  0.03443  0.78857  0.46957  1.0000
  C   C482      1.0  0.07793  0.77687  0.44120  1.0000
  H   H312      1.0  0.06203  0.73037  0.44277  1.0000
  C   C483      1.0  0.05313  0.91307  0.46547  1.0000
  O   O113      1.0  0.50566  0.89426  0.34713  1.0000
  O   O114      1.0  0.44475  0.83827  0.31767  1.0000
  O   O115      1.0  0.05913  0.96227  0.46090  1.0000
  O   O116      1.0  0.02213  0.88497  0.48319  1.0000
  N   N57       1.0  0.21248  0.76990  0.38738  1.0000
  N   N58       1.0  0.14493  0.78001  0.40991  1.0000
  C   C484      1.0  0.45149  0.85725  0.33784  1.0000
  C   C485      1.0  0.38820  0.83096  0.35102  1.0000
  C   C486      1.0  0.39117  0.85476  0.37262  1.0000
  H   H313      1.0  0.43303  0.88567  0.37897  1.0000
  C   C487      1.0  0.33333  0.83327  0.38464  1.0000
  H   H314      1.0  0.33483  0.84907  0.39937  1.0000
  C   C488      1.0  0.27268  0.78829  0.37495  1.0000
  C   C489      1.0  0.26834  0.76322  0.35430  1.0000
  H   H315      1.0  0.22623  0.73117  0.34827  1.0000
  C   C490      1.0  0.32716  0.78530  0.34187  1.0000
  H   H316      1.0  0.32513  0.76897  0.32717  1.0000
  C   C491      1.0  0.15613  0.70857  0.38919  1.0000
  H   H317      1.0  0.14853  0.66907  0.38177  1.0000
  C   C492      1.0  0.11383  0.71317  0.40303  1.0000
  H   H318      1.0  0.07103  0.67817  0.40737  1.0000
  C   C493      1.0  0.20453  0.81227  0.40005  1.0000
  H   H319      1.0  0.23623  0.85827  0.40187  1.0000
  C   C494      1.0  0.98269  0.58071  0.30372  1.0000
  C   C495      1.0  0.91735  0.57972  0.30511  1.0000
  C   C496      1.0  0.85784  0.51923  0.30393  1.0000
  H   H320      1.0  0.85893  0.47887  0.30247  1.0000
  C   C497      1.0  0.79707  0.51707  0.30484  1.0000
  H   H321      1.0  0.75653  0.47547  0.30417  1.0000
  C   C498      1.0  0.79568  0.57550  0.30680  1.0000
  C   C499      1.0  0.85422  0.63577  0.30928  1.0000
  H   H322      1.0  0.85283  0.67557  0.31197  1.0000
  C   C500      1.0  0.91491  0.63785  0.30780  1.0000
  H   H323      1.0  0.95523  0.67957  0.30867  1.0000
  C   C501      1.0  0.66991  0.51558  0.30653  1.0000
  H   H324      1.0  0.66113  0.47077  0.30647  1.0000
  C   C502      1.0  0.62498  0.53498  0.30577  1.0000
  H   H325      1.0  0.57783  0.50657  0.30527  1.0000
  C   C503      1.0  0.72396  0.62621  0.30753  1.0000
  H   H326      1.0  0.75843  0.67167  0.30857  1.0000
  C   C504      1.0  0.62940  0.64602  0.30465  1.0000
  C   C505      1.0  0.66145  0.70908  0.31405  1.0000
  H   H327      1.0  0.70183  0.72437  0.32217  1.0000
  C   C506      1.0  0.56867  0.62124  0.29400  1.0000
  H   H328      1.0  0.54643  0.57707  0.28817  1.0000
  C   C507      1.0  0.54043  0.66177  0.29194  1.0000
  H   H329      1.0  0.49863  0.64537  0.28467  1.0000
  C   C508      1.0  0.57303  0.72607  0.30049  1.0000
  C   C509      1.0  0.63381  0.74895  0.31143  1.0000
  H   H330      1.0  0.65653  0.79317  0.31717  1.0000
  C   C510      1.0  0.54143  0.76826  0.29745  1.0000
  O   O117      1.0  0.48569  0.74399  0.28951  1.0000
  O   O118      1.0  0.57642  0.82906  0.30401  1.0000
  O   O119      1.0  0.03399  0.63913  0.30241  1.0000
  O   O120      1.0  0.98493  0.52937  0.30406  1.0000
  N   N59       1.0  0.65924  0.60448  0.30587  1.0000
  N   N60       1.0  0.73258  0.57299  0.30746  1.0000
  O   O121      1.0  0.77241  0.94474  0.68046  1.0000
  O   O122      1.0  0.82840  0.93982  0.65100  1.0000
  O   O123      1.0  0.70440  0.43020  0.79423  1.0000
  O   O124      1.0  0.78170  0.47050  0.81652  1.0000
  N   N61       1.0  0.89677  0.77592  0.72071  1.0000
  N   N62       1.0  0.88666  0.69826  0.74324  1.0000
  C   C511      1.0  0.80942  0.92758  0.67117  1.0000
  C   C512      1.0  0.83571  0.89058  0.68435  1.0000
  C   C513      1.0  0.81191  0.86975  0.70595  1.0000
  H   H331      1.0  0.78100  0.88070  0.71230  1.0000
  C   C514      1.0  0.83340  0.83340  0.71797  1.0000
  H   H332      1.0  0.81760  0.81910  0.73270  1.0000
  C   C515      1.0  0.87838  0.81773  0.70828  1.0000
  C   C516      1.0  0.90345  0.83846  0.68763  1.0000
  H   H333      1.0  0.93550  0.82840  0.68160  1.0000
  C   C517      1.0  0.88137  0.87520  0.67520  1.0000
  H   H334      1.0  0.89770  0.88950  0.66050  1.0000
  C   C518      1.0  0.95810  0.78090  0.72252  1.0000
  H   H335      1.0  0.99760  0.81280  0.71510  1.0000
  C   C519      1.0  0.95350  0.73400  0.73636  1.0000
  H   H336      1.0  0.98850  0.72620  0.74070  1.0000
  C   C520      1.0  0.85440  0.72560  0.73338  1.0000
  H   H337      1.0  0.80840  0.71130  0.73520  1.0000
  C   C521      1.0  0.85470  0.64190  0.75745  1.0000
  C   C522      1.0  0.79110  0.59620  0.75396  1.0000
  H   H338      1.0  0.76720  0.60110  0.74190  1.0000
  C   C523      1.0  0.76010  0.54120  0.76811  1.0000
  H   H339      1.0  0.71440  0.50930  0.76570  1.0000
  C   C524      1.0  0.79030  0.53200  0.78407  1.0000
  C   C525      1.0  0.85710  0.58180  0.78960  1.0000
  H   H340      1.0  0.87810  0.57920  0.80290  1.0000
  C   C526      1.0  0.88980  0.63440  0.77453  1.0000
  H   H341      1.0  0.93630  0.66500  0.77610  1.0000
  C   C527      1.0  0.75360  0.47340  0.79880  1.0000
  O   O125      1.0  0.92268  0.07504  0.62284  1.0000
  O   O126      1.0  0.83761  0.08070  0.63734  1.0000
  O   O127      1.0  0.02754  0.72820  0.63574  1.0000
  O   O128      1.0  0.13730  0.78890  0.63739  1.0000
  N   N63       1.0  0.06219  0.38810  0.63920  1.0000
  N   N64       1.0  0.09368  0.49293  0.64079  1.0000
  C   C528      1.0  0.08596  0.73532  0.63705  1.0000
  C   C529      1.0  0.08695  0.67097  0.63844  1.0000
  C   C530      1.0  0.14744  0.67195  0.63726  1.0000
  H   H342      1.0  0.18780  0.71340  0.63580  1.0000
  C   C531      1.0  0.14960  0.61334  0.63817  1.0000
  H   H343      1.0  0.19120  0.61440  0.63750  1.0000
  C   C532      1.0  0.09117  0.55352  0.64013  1.0000
  C   C533      1.0  0.03090  0.55179  0.64261  1.0000
  H   H344      1.0  0.99110  0.51060  0.64530  1.0000
  C   C534      1.0  0.02882  0.61040  0.64113  1.0000
  H   H345      1.0  0.98710  0.60900  0.64200  1.0000
  C   C535      1.0  0.15109  0.48767  0.63986  1.0000
  H   H346      1.0  0.19590  0.52370  0.63980  1.0000
  C   C536      1.0  0.13169  0.42334  0.63910  1.0000
  H   H347      1.0  0.16010  0.40460  0.63860  1.0000
  C   C537      1.0  0.04046  0.43109  0.64086  1.0000
  H   H348      1.0  0.99500  0.42010  0.64190  1.0000
  C   C538      1.0  0.02065  0.31672  0.63798  1.0000
  C   C539      1.0  0.95759  0.28571  0.64738  1.0000
  H   H349      1.0  0.94230  0.31080  0.65550  1.0000
  C   C540      1.0  0.04543  0.28077  0.62733  1.0000
  H   H350      1.0  0.08960  0.30270  0.62150  1.0000
  C   C541      1.0  0.00490  0.21200  0.62527  1.0000
  H   H351      1.0  0.02130  0.18660  0.61800  1.0000
  C   C542      1.0  0.94060  0.18030  0.63382  1.0000
  C   C543      1.0  0.91772  0.21820  0.64476  1.0000
  H   H352      1.0  0.87350  0.19670  0.65050  1.0000
  C   C544      1.0  0.89841  0.10651  0.63078  1.0000
  O   O129      1.0  0.43908  0.27807  0.01379  1.0000
  O   O130      1.0  0.49507  0.27315  0.98433  1.0000
  O   O131      1.0  0.37107  0.76353  0.12756  1.0000
  O   O132      1.0  0.44837  0.80383  0.14985  1.0000
  N   N65       1.0  0.56344  0.10925  0.05404  1.0000
  N   N66       1.0  0.55333  0.03159  0.07657  1.0000
  C   C545      1.0  0.47609  0.26091  0.00450  1.0000
  C   C546      1.0  0.50238  0.22391  0.01768  1.0000
  C   C547      1.0  0.47858  0.20308  0.03928  1.0000
  H   H353      1.0  0.44767  0.21403  0.04563  1.0000
  C   C548      1.0  0.50007  0.16673  0.05130  1.0000
  H   H354      1.0  0.48427  0.15243  0.06603  1.0000
  C   C549      1.0  0.54505  0.15106  0.04161  1.0000
  C   C550      1.0  0.57012  0.17179  0.02096  1.0000
  H   H355      1.0  0.60217  0.16173  0.01493  1.0000
  C   C551      1.0  0.54804  0.20853  0.00853  1.0000
  H   H356      1.0  0.56437  0.22283  0.99383  1.0000
  C   C552      1.0  0.62477  0.11423  0.05585  1.0000
  H   H357      1.0  0.66427  0.14613  0.04843  1.0000
  C   C553      1.0  0.62017  0.06733  0.06969  1.0000
  H   H358      1.0  0.65517  0.05953  0.07403  1.0000
  C   C554      1.0  0.52107  0.05893  0.06671  1.0000
  H   H359      1.0  0.47507  0.04463  0.06853  1.0000
  C   C555      1.0  0.52137  0.97523  0.09078  1.0000
  C   C556      1.0  0.45777  0.92953  0.08729  1.0000
  H   H360      1.0  0.43387  0.93443  0.07523  1.0000
  C   C557      1.0  0.42677  0.87453  0.10144  1.0000
  H   H361      1.0  0.38107  0.84263  0.09903  1.0000
  C   C558      1.0  0.45697  0.86533  0.11740  1.0000
  C   C559      1.0  0.52377  0.91513  0.12293  1.0000
  H   H362      1.0  0.54477  0.91253  0.13623  1.0000
  C   C560      1.0  0.55647  0.96773  0.10786  1.0000
  H   H363      1.0  0.60297  0.99833  0.10943  1.0000
  C   C561      1.0  0.42027  0.80673  0.13213  1.0000
  O   O133      1.0  0.58935  0.40837  0.95617  1.0000
  O   O134      1.0  0.50428  0.41403  0.97067  1.0000
  O   O135      1.0  0.69421  0.06153  0.96907  1.0000
  O   O136      1.0  0.80397  0.12223  0.97072  1.0000
  N   N67       1.0  0.72886  0.72143  0.97253  1.0000
  N   N68       1.0  0.76035  0.82626  0.97412  1.0000
  C   C562      1.0  0.75263  0.06865  0.97038  1.0000
  C   C563      1.0  0.75362  0.00430  0.97177  1.0000
  C   C564      1.0  0.81411  0.00528  0.97059  1.0000
  H   H364      1.0  0.85447  0.04673  0.96913  1.0000
  C   C565      1.0  0.81627  0.94667  0.97150  1.0000
  H   H365      1.0  0.85787  0.94773  0.97083  1.0000
  C   C566      1.0  0.75784  0.88685  0.97346  1.0000
  C   C567      1.0  0.69757  0.88512  0.97594  1.0000
  H   H366      1.0  0.65777  0.84393  0.97863  1.0000
  C   C568      1.0  0.69549  0.94373  0.97446  1.0000
  H   H367      1.0  0.65377  0.94233  0.97533  1.0000
  C   C569      1.0  0.81776  0.82100  0.97319  1.0000
  H   H368      1.0  0.86257  0.85703  0.97313  1.0000
  C   C570      1.0  0.79836  0.75667  0.97243  1.0000
  H   H369      1.0  0.82677  0.73793  0.97193  1.0000
  C   C571      1.0  0.70713  0.76442  0.97419  1.0000
  H   H370      1.0  0.66167  0.75343  0.97523  1.0000
  C   C572      1.0  0.68732  0.65005  0.97131  1.0000
  C   C573      1.0  0.62426  0.61904  0.98071  1.0000
  H   H371      1.0  0.60897  0.64413  0.98883  1.0000
  C   C574      1.0  0.71210  0.61410  0.96066  1.0000
  H   H372      1.0  0.75627  0.63603  0.95483  1.0000
  C   C575      1.0  0.67157  0.54533  0.95860  1.0000
  H   H373      1.0  0.68797  0.51993  0.95133  1.0000
  C   C576      1.0  0.60727  0.51363  0.96715  1.0000
  C   C577      1.0  0.58439  0.55153  0.97809  1.0000
  H   H374      1.0  0.54017  0.53003  0.98383  1.0000
  C   C578      1.0  0.56508  0.43984  0.96411  1.0000
  O   O137      1.0  0.10574  0.61141  0.34713  1.0000
  O   O138      1.0  0.16173  0.60649  0.31767  1.0000
  O   O139      1.0  0.03773  0.09687  0.46090  1.0000
  O   O140      1.0  0.11503  0.13717  0.48319  1.0000
  N   N69       1.0  0.23010  0.44259  0.38738  1.0000
  N   N70       1.0  0.21999  0.36493  0.40991  1.0000
  C   C579      1.0  0.14275  0.59425  0.33784  1.0000
  C   C580      1.0  0.16904  0.55725  0.35102  1.0000
  C   C581      1.0  0.14524  0.53642  0.37262  1.0000
  H   H375      1.0  0.11433  0.54737  0.37897  1.0000
  C   C582      1.0  0.16673  0.50007  0.38464  1.0000
  H   H376      1.0  0.15093  0.48577  0.39937  1.0000
  C   C583      1.0  0.21171  0.48440  0.37495  1.0000
  C   C584      1.0  0.23678  0.50513  0.35430  1.0000
  H   H377      1.0  0.26883  0.49507  0.34827  1.0000
  C   C585      1.0  0.21470  0.54187  0.34187  1.0000
  H   H378      1.0  0.23103  0.55617  0.32717  1.0000
  C   C586      1.0  0.29143  0.44757  0.38919  1.0000
  H   H379      1.0  0.33093  0.47947  0.38177  1.0000
  C   C587      1.0  0.28683  0.40067  0.40303  1.0000
  H   H380      1.0  0.32183  0.39287  0.40737  1.0000
  C   C588      1.0  0.18773  0.39227  0.40005  1.0000
  H   H381      1.0  0.14173  0.37797  0.40187  1.0000
  C   C589      1.0  0.18803  0.30857  0.42412  1.0000
  C   C590      1.0  0.12443  0.26287  0.42063  1.0000
  H   H382      1.0  0.10053  0.26777  0.40857  1.0000
  C   C591      1.0  0.09343  0.20787  0.43478  1.0000
  H   H383      1.0  0.04773  0.17597  0.43237  1.0000
  C   C592      1.0  0.12363  0.19867  0.45074  1.0000
  C   C593      1.0  0.19043  0.24847  0.45627  1.0000
  H   H384      1.0  0.21143  0.24587  0.46957  1.0000
  C   C594      1.0  0.22313  0.30107  0.44120  1.0000
  H   H385      1.0  0.26963  0.33167  0.44277  1.0000
  C   C595      1.0  0.08693  0.14007  0.46547  1.0000
  H   H386      1.0  0.52453  0.28107  0.30417  1.0000
  C   C596      1.0  0.42450  0.22019  0.30680  1.0000
  C   C597      1.0  0.36423  0.21846  0.30928  1.0000
  H   H387      1.0  0.32443  0.17727  0.31197  1.0000
  C   C598      1.0  0.36215  0.27707  0.30780  1.0000
  H   H388      1.0  0.32043  0.27567  0.30867  1.0000
  C   C599      1.0  0.48442  0.15434  0.30653  1.0000
  H   H389      1.0  0.52923  0.19037  0.30647  1.0000
  C   C600      1.0  0.46502  0.09001  0.30577  1.0000
  H   H390      1.0  0.49343  0.07127  0.30527  1.0000
  C   C601      1.0  0.37379  0.09776  0.30753  1.0000
  H   H391      1.0  0.32833  0.08677  0.30857  1.0000
  C   C602      1.0  0.35398  0.98339  0.30465  1.0000
  C   C603      1.0  0.29092  0.95238  0.31405  1.0000
  H   H392      1.0  0.27563  0.97747  0.32217  1.0000
  C   C604      1.0  0.37876  0.94744  0.29400  1.0000
  H   H393      1.0  0.42293  0.96937  0.28817  1.0000
  C   C605      1.0  0.33823  0.87867  0.29194  1.0000
  H   H394      1.0  0.35463  0.85327  0.28467  1.0000
  C   C606      1.0  0.27393  0.84697  0.30049  1.0000
  C   C607      1.0  0.25105  0.88487  0.31143  1.0000
  H   H395      1.0  0.20683  0.86337  0.31717  1.0000
  C   C608      1.0  0.23174  0.77318  0.29745  1.0000
  O   O141      1.0  0.25601  0.74171  0.28951  1.0000
  O   O142      1.0  0.17094  0.74737  0.30401  1.0000
  O   O143      1.0  0.36087  0.39487  0.30241  1.0000
  O   O144      1.0  0.47063  0.45557  0.30406  1.0000
  N   N71       1.0  0.39552  0.05477  0.30587  1.0000
  N   N72       1.0  0.42701  0.15960  0.30746  1.0000
  C   C609      1.0  0.41929  0.40199  0.30372  1.0000
  C   C610      1.0  0.42028  0.33764  0.30511  1.0000
  C   C611      1.0  0.48077  0.33862  0.30393  1.0000
  H   H396      1.0  0.52113  0.38007  0.30247  1.0000
  C   C612      1.0  0.48293  0.28001  0.30484  1.0000
  C   C613      1.0  0.92640  0.17440  0.40890  1.0000
  C   C614      1.0  0.89180  0.07720  0.43250  1.0000
  O   O145      1.0  0.94854  0.15539  0.39674  1.0000
  H   H397      1.0  0.86170  0.05530  0.44520  1.0000
  H   H398      1.0  0.93760  0.08990  0.43680  1.0000
  C   C615      1.0  0.83830  0.15460  0.43960  1.0000
  H   H399      1.0  0.87780  0.04640  0.41980  1.0000
  N   N73       1.0  0.88910  0.13770  0.42620  1.0000
  H   H400      1.0  0.79210  0.12130  0.43590  1.0000
  H   H401      1.0  0.84680  0.19910  0.43540  1.0000
  H   H402      1.0  0.84540  0.15370  0.45570  1.0000
  H   H403      1.0  0.52837  0.38863  0.77853  1.0000
  H   H404      1.0  0.51207  0.48703  0.78903  1.0000
  C   C616      1.0  0.59307  0.50773  0.74223  1.0000
  C   C617      1.0  0.55847  0.41053  0.76583  1.0000
  O   O146      1.0  0.61521  0.48872  0.73007  1.0000
  H   H405      1.0  0.60427  0.42323  0.77013  1.0000
  H   H406      1.0  0.54447  0.37973  0.75313  1.0000
  C   C618      1.0  0.50497  0.48793  0.77293  1.0000
  H   H407      1.0  0.51347  0.53243  0.76873  1.0000
  N   N74       1.0  0.55577  0.47103  0.75953  1.0000
  H   H408      1.0  0.45877  0.45463  0.76923  1.0000
  C   C619      1.0  0.25973  0.84107  0.07557  1.0000
  C   C620      1.0  0.22513  0.74387  0.09917  1.0000
  O   O147      1.0  0.28187  0.82206  0.06341  1.0000
  H   H409      1.0  0.19503  0.72197  0.11187  1.0000
  H   H410      1.0  0.21113  0.71307  0.08647  1.0000
  C   C621      1.0  0.17163  0.82127  0.10627  1.0000
  H   H411      1.0  0.27093  0.75657  0.10347  1.0000
  N   N75       1.0  0.22243  0.80437  0.09287  1.0000
  H   H412      1.0  0.18013  0.86577  0.10207  1.0000
  H   H413      1.0  0.12543  0.78797  0.10257  1.0000
  H   H414      1.0  0.17873  0.82037  0.12237  1.0000
  H   H415      1.0  0.84630  0.69170  0.45570  1.0000
  H   H416      1.0  0.94470  0.80640  0.44520  1.0000
  C   C622      1.0  0.82560  0.75200  0.40890  1.0000
  C   C623      1.0  0.92280  0.81460  0.43250  1.0000
  O   O148      1.0  0.84461  0.79315  0.39674  1.0000
  H   H417      1.0  0.91010  0.84770  0.43680  1.0000
  H   H418      1.0  0.95360  0.83140  0.41980  1.0000
  C   C624      1.0  0.84540  0.68370  0.43960  1.0000
  H   H419      1.0  0.80090  0.64770  0.43540  1.0000
  N   N76       1.0  0.86230  0.75140  0.42620  1.0000
  H   H420      1.0  0.87870  0.67080  0.43590  1.0000
  C   C625      1.0  0.49227  0.08533  0.74223  1.0000
  C   C626      1.0  0.58947  0.14793  0.76583  1.0000
  O   O149      1.0  0.51128  0.12648  0.73007  1.0000
  H   H421      1.0  0.57677  0.18103  0.77013  1.0000
  H   H422      1.0  0.62027  0.16473  0.75313  1.0000
  C   C627      1.0  0.51207  0.01703  0.77293  1.0000
  H   H423      1.0  0.61137  0.13973  0.77853  1.0000
  N   N77       1.0  0.52897  0.08473  0.75953  1.0000
  H   H424      1.0  0.51297  0.02503  0.78903  1.0000
  H   H425      1.0  0.54537  0.00413  0.76923  1.0000
  H   H426      1.0  0.46757  0.98103  0.76873  1.0000
  H   H427      1.0  0.17963  0.35837  0.12237  1.0000
  H   H428      1.0  0.27803  0.47307  0.11187  1.0000
  C   C628      1.0  0.15893  0.41867  0.07557  1.0000
  C   C629      1.0  0.25613  0.48127  0.09917  1.0000
  O   O150      1.0  0.17794  0.45982  0.06341  1.0000
  H   H429      1.0  0.24343  0.51437  0.10347  1.0000
  H   H430      1.0  0.28693  0.49807  0.08647  1.0000
  C   C630      1.0  0.17873  0.35037  0.10627  1.0000
  H   H431      1.0  0.13423  0.31437  0.10207  1.0000
  N   N78       1.0  0.19563  0.41807  0.09287  1.0000
  H   H432      1.0  0.21203  0.33747  0.10257  1.0000
  C   C631      1.0  0.24800  0.07360  0.40890  1.0000
  C   C632      1.0  0.18540  0.10820  0.43250  1.0000
  O   O151      1.0  0.20685  0.05146  0.39674  1.0000
  H   H433      1.0  0.15230  0.06240  0.43680  1.0000
  H   H434      1.0  0.16860  0.12220  0.41980  1.0000
  C   C633      1.0  0.31630  0.16170  0.43960  1.0000
  H   H435      1.0  0.35230  0.15320  0.43540  1.0000
  N   N79       1.0  0.24860  0.11090  0.42620  1.0000
  H   H436      1.0  0.32920  0.20790  0.43590  1.0000
  H   H437      1.0  0.30830  0.15460  0.45570  1.0000
  H   H438      1.0  0.19360  0.13830  0.44520  1.0000
  H   H439      1.0  0.97497  0.48793  0.78903  1.0000
  H   H440      1.0  0.86027  0.47163  0.77853  1.0000
  C   C634      1.0  0.91467  0.40693  0.74223  1.0000
  C   C635      1.0  0.85207  0.44153  0.76583  1.0000
  O   O152      1.0  0.87352  0.38479  0.73007  1.0000
  H   H441      1.0  0.81897  0.39573  0.77013  1.0000
  H   H442      1.0  0.83527  0.45553  0.75313  1.0000
  C   C636      1.0  0.98297  0.49503  0.77293  1.0000
  H   H443      1.0  0.01897  0.48653  0.76873  1.0000
  N   N80       1.0  0.91527  0.44423  0.75953  1.0000
  H   H444      1.0  0.99587  0.54123  0.76923  1.0000
  C   C637      1.0  0.58133  0.74027  0.07557  1.0000
  C   C638      1.0  0.51873  0.77487  0.09917  1.0000
  O   O153      1.0  0.54018  0.71813  0.06341  1.0000
  H   H445      1.0  0.48563  0.72907  0.10347  1.0000
  H   H446      1.0  0.52693  0.80497  0.11187  1.0000
  C   C639      1.0  0.64963  0.82837  0.10627  1.0000
  H   H447      1.0  0.68563  0.81987  0.10207  1.0000
  N   N81       1.0  0.58193  0.77757  0.09287  1.0000
  H   H448      1.0  0.66253  0.87457  0.10257  1.0000
  H   H449      1.0  0.64163  0.82127  0.12237  1.0000
  H   H450      1.0  0.50193  0.78887  0.08647  1.0000
  H   H451      1.0  0.15460  0.84630  0.54430  1.0000
  H   H452      1.0  0.13830  0.94470  0.55480  1.0000
  C   C640      1.0  0.07360  0.82560  0.59110  1.0000
  C   C641      1.0  0.10820  0.92280  0.56750  1.0000
  O   O154      1.0  0.05146  0.84461  0.60326  1.0000
  H   H453      1.0  0.06240  0.91010  0.56320  1.0000
  H   H454      1.0  0.12220  0.95360  0.58020  1.0000
  C   C642      1.0  0.16170  0.84540  0.56040  1.0000
  H   H455      1.0  0.15320  0.80090  0.56460  1.0000
  N   N82       1.0  0.11090  0.86230  0.57380  1.0000
  H   H456      1.0  0.20790  0.87870  0.56410  1.0000
  C   C643      1.0  0.74027  0.15893  0.92443  1.0000
  C   C644      1.0  0.77487  0.25613  0.90083  1.0000
  O   O155      1.0  0.71813  0.17794  0.93659  1.0000
  H   H457      1.0  0.72907  0.24343  0.89653  1.0000
  H   H458      1.0  0.78887  0.28693  0.91353  1.0000
  C   C645      1.0  0.82837  0.17873  0.89373  1.0000
  H   H459      1.0  0.80497  0.27803  0.88813  1.0000
  N   N83       1.0  0.77757  0.19563  0.90713  1.0000
  H   H460      1.0  0.87457  0.21203  0.89743  1.0000
  H   H461      1.0  0.82127  0.17963  0.87763  1.0000
  H   H462      1.0  0.81987  0.13423  0.89793  1.0000
  H   H463      1.0  0.47163  0.61137  0.22147  1.0000
  H   H464      1.0  0.48793  0.51297  0.21097  1.0000
  C   C646      1.0  0.40693  0.49227  0.25777  1.0000
  C   C647      1.0  0.44153  0.58947  0.23417  1.0000
  O   O156      1.0  0.38479  0.51128  0.26993  1.0000
  H   H465      1.0  0.39573  0.57677  0.22987  1.0000
  H   H466      1.0  0.45553  0.62027  0.24687  1.0000
  C   C648      1.0  0.49503  0.51207  0.22707  1.0000
  H   H467      1.0  0.48653  0.46757  0.23127  1.0000
  N   N84       1.0  0.44423  0.52897  0.24047  1.0000
  H   H468      1.0  0.54123  0.54537  0.23077  1.0000
  C   C649      1.0  0.17440  0.24800  0.59110  1.0000
  C   C650      1.0  0.07720  0.18540  0.56750  1.0000
  O   O157      1.0  0.15539  0.20685  0.60326  1.0000
  H   H469      1.0  0.08990  0.15230  0.56320  1.0000
  H   H470      1.0  0.04640  0.16860  0.58020  1.0000
  C   C651      1.0  0.15460  0.31630  0.56040  1.0000
  H   H471      1.0  0.05530  0.19360  0.55480  1.0000
  N   N85       1.0  0.13770  0.24860  0.57380  1.0000
  H   H472      1.0  0.19910  0.35230  0.56460  1.0000
  H   H473      1.0  0.15370  0.30830  0.54430  1.0000
  H   H474      1.0  0.12130  0.32920  0.56410  1.0000
  H   H475      1.0  0.72197  0.52693  0.88813  1.0000
  H   H476      1.0  0.78797  0.66253  0.89743  1.0000
  C   C652      1.0  0.84107  0.58133  0.92443  1.0000
  C   C653      1.0  0.74387  0.51873  0.90083  1.0000
  O   O158      1.0  0.82206  0.54018  0.93659  1.0000
  H   H477      1.0  0.75657  0.48563  0.89653  1.0000
  H   H478      1.0  0.71307  0.50193  0.91353  1.0000
  C   C654      1.0  0.82127  0.64963  0.89373  1.0000
  H   H479      1.0  0.86577  0.68563  0.89793  1.0000
  N   N86       1.0  0.80437  0.58193  0.90713  1.0000
  H   H480      1.0  0.82037  0.64163  0.87763  1.0000
  C   C655      1.0  0.50773  0.91467  0.25777  1.0000
  C   C656      1.0  0.41053  0.85207  0.23417  1.0000
  O   O159      1.0  0.48872  0.87352  0.26993  1.0000
  H   H481      1.0  0.42323  0.81897  0.22987  1.0000
  H   H482      1.0  0.38863  0.86027  0.22147  1.0000
  C   C657      1.0  0.48793  0.98297  0.22707  1.0000
  H   H483      1.0  0.53243  0.01897  0.23127  1.0000
  N   N87       1.0  0.47103  0.91527  0.24047  1.0000
  H   H484      1.0  0.45463  0.99587  0.23077  1.0000
  H   H485      1.0  0.48703  0.97497  0.21097  1.0000
  H   H486      1.0  0.37973  0.83527  0.24687  1.0000
  H   H487      1.0  0.80640  0.86170  0.55480  1.0000
  H   H488      1.0  0.69170  0.84540  0.54430  1.0000
  C   C658      1.0  0.75200  0.92640  0.59110  1.0000
  C   C659      1.0  0.81460  0.89180  0.56750  1.0000
  O   O160      1.0  0.79315  0.94854  0.60326  1.0000
  H   H489      1.0  0.84770  0.93760  0.56320  1.0000
  H   H490      1.0  0.83140  0.87780  0.58020  1.0000
  C   C660      1.0  0.68370  0.83830  0.56040  1.0000
  H   H491      1.0  0.64770  0.84680  0.56460  1.0000
  N   N88       1.0  0.75140  0.88910  0.57380  1.0000
  H   H492      1.0  0.67080  0.79210  0.56410  1.0000
  C   C661      1.0  0.41867  0.25973  0.92443  1.0000
  C   C662      1.0  0.48127  0.22513  0.90083  1.0000
  O   O161      1.0  0.45982  0.28187  0.93659  1.0000
  H   H493      1.0  0.51437  0.27093  0.89653  1.0000
  H   H494      1.0  0.49807  0.21113  0.91353  1.0000
  C   C663      1.0  0.35037  0.17163  0.89373  1.0000
  H   H495      1.0  0.47307  0.19503  0.88813  1.0000
  N   N89       1.0  0.41807  0.22243  0.90713  1.0000
  H   H496      1.0  0.31437  0.18013  0.89793  1.0000
  H   H497      1.0  0.33747  0.12543  0.89743  1.0000
  H   H498      1.0  0.35837  0.17873  0.87763  1.0000
  H   H499      1.0  0.02503  0.51207  0.21097  1.0000
  H   H500      1.0  0.13973  0.52837  0.22147  1.0000
  C   C664      1.0  0.08533  0.59307  0.25777  1.0000
  C   C665      1.0  0.14793  0.55847  0.23417  1.0000
  O   O162      1.0  0.12648  0.61521  0.26993  1.0000
  H   H501      1.0  0.18103  0.60427  0.22987  1.0000
  H   H502      1.0  0.16473  0.54447  0.24687  1.0000
  C   C666      1.0  0.01703  0.50497  0.22707  1.0000
  H   H503      1.0  0.98103  0.51347  0.23127  1.0000
  N   N90       1.0  0.08473  0.55577  0.24047  1.0000
  H   H504      1.0  0.00413  0.45877  0.23077  1.0000
  Zn  Zn1       1.0  0.98313  0.19333  0.36638  1.0000
  Zn  Zn2       1.0  0.54353  0.68353  0.03304  1.0000
  Zn  Zn3       1.0  0.45647  0.31647  0.96696  1.0000
  Zn  Zn4       1.0  0.47334  0.12314  0.69971  1.0000
  Zn  Zn5       1.0  0.19333  0.21019  0.63363  1.0000
  Zn  Zn6       1.0  0.52666  0.87686  0.30029  1.0000
  Zn  Zn7       1.0  0.14001  0.45647  0.03304  1.0000
  Zn  Zn8       1.0  0.85999  0.54353  0.96696  1.0000
  Zn  Zn9       1.0  0.64980  0.52666  0.69971  1.0000
  Zn  Zn10      1.0  0.01687  0.80668  0.63363  1.0000
  Zn  Zn11      1.0  0.12314  0.64980  0.30029  1.0000
  Zn  Zn12      1.0  0.31647  0.85999  0.03304  1.0000
  Zn  Zn13      1.0  0.68353  0.14001  0.96696  1.0000
  Zn  Zn14      1.0  0.33333  0.66667  0.19716  1.0000
  Zn  Zn15      1.0  0.00000  0.00000  0.53049  1.0000
  Zn  Zn16      1.0  0.66667  0.33333  0.86383  1.0000
  Zn  Zn17      1.0  0.66667  0.33333  0.80284  1.0000
  Zn  Zn18      1.0  0.33333  0.66667  0.13617  1.0000
  Zn  Zn19      1.0  0.00000  0.00000  0.46951  1.0000
  O   O163      1.0  0.33333  0.66667  0.16667  1.0000
  O   O164      1.0  0.00000  0.00000  0.50000  1.0000
  O   O165      1.0  0.66667  0.33333  0.83333  1.0000
  Zn  Zn20      1.0  0.87686  0.35020  0.69971  1.0000
  Zn  Zn21      1.0  0.78981  0.98313  0.63363  1.0000
  Zn  Zn22      1.0  0.21019  0.01687  0.36638  1.0000
  Zn  Zn23      1.0  0.80668  0.78981  0.36638  1.0000
  Zn  Zn24      1.0  0.35020  0.47334  0.30029  1.0000
