data_image0
_chemical_formula_structural       O2C5HCHCH2SOC3HC2HCH2CO8C5HCHCH2SOC3HC2HCH2CO3C5HCHCH2SOC3HC2HCH2CO5C5HCHCH2SOC3HC2HCH2CO5C5HCHCH2SOC3HC2OCH2CHOC3HCHCH2SOC3HC2HCH2CO5C2O4C5HCHCH2SOC3HC2HCH2CO4C5HCHCH2SOC3HC2HCH2CO3CO2CO2CO2CONaEuNaEuNaEuNaEuNa4O2C5HCHCH2SOC3HC2HCH2CO8C5HCHCH2SOC3HC2HCH2CO3C5HCHCH2SOC3HC2HCH2CO5C5HCHCH2SOC3HC2HCH2CO5C5HCHCH2SOC3HC2OCH2CHOC3HCHCH2SOC3HC2HCH2CO5C2O4C5HCHCH2SOC3HC2HCH2CO4C5HCHCH2SOC3HC2HCH2CO3CO2CO2CO2CONaEuNaEuNaEuNaEuNa4
_chemical_formula_sum              "O112 C232 H128 S16 Na16 Eu8"
_cell_length_a       26.6907
_cell_length_b       22.7441
_cell_length_c       11.4282
_cell_angle_alpha    90
_cell_angle_beta     90
_cell_angle_gamma    90

_space_group_name_H-M_alt    "P 1"
_space_group_IT_number       1

loop_
  _space_group_symop_operation_xyz
  'x, y, z'

loop_
  _atom_site_type_symbol
  _atom_site_label
  _atom_site_symmetry_multiplicity
  _atom_site_fract_x
  _atom_site_fract_y
  _atom_site_fract_z
  _atom_site_occupancy
  O   O1        1.0  0.18550  0.33890  0.07815  1.0000
  O   O2        1.0  0.18991  0.37900  0.25690  1.0000
  C   C1        1.0  0.20460  0.37340  0.15530  1.0000
  C   C2        1.0  0.25050  0.40740  0.11770  1.0000
  C   C3        1.0  0.27180  0.44740  0.19540  1.0000
  C   C4        1.0  0.27310  0.39780  0.01130  1.0000
  C   C5        1.0  0.31560  0.47630  0.16785  1.0000
  H   H1        1.0  0.25600  0.45490  0.26830  1.0000
  C   C6        1.0  0.31690  0.42690  0.48215  1.0000
  H   H2        1.0  0.25860  0.37100  0.45740  1.0000
  C   C7        1.0  0.33760  0.46570  0.06080  1.0000
  H   H3        1.0  0.33030  0.50300  0.22165  1.0000
  H   H4        1.0  0.33250  0.42010  0.40865  1.0000
  S   S1        1.0  0.39395  0.50178  0.02285  1.0000
  O   O3        1.0  0.39333  0.51300  0.39925  1.0000
  C   C8        1.0  0.44180  0.45010  0.05140  1.0000
  C   C9        1.0  0.45540  0.40970  0.46505  1.0000
  C   C10       1.0  0.46620  0.45070  0.15760  1.0000
  H   H5        1.0  0.43750  0.40810  0.39325  1.0000
  C   C11       1.0  0.49480  0.37250  0.48495  1.0000
  C   C12       1.0  0.50490  0.41160  0.17670  1.0000
  H   H6        1.0  0.45650  0.47770  0.21685  1.0000
  C   C13       1.0  0.51930  0.37300  0.09060  1.0000
  H   H7        1.0  0.50520  0.34610  0.42530  1.0000
  H   H8        1.0  0.52160  0.41130  0.25005  1.0000
  C   C14       1.0  0.56360  0.33310  0.10910  1.0000
  O   O4        1.0  0.58618  0.31271  0.02140  1.0000
  O   O5        1.0  0.40132  0.54960  0.10355  1.0000
  O   O6        1.0  0.57709  0.31992  0.21120  1.0000
  O   O7        1.0  0.07709  0.18008  0.03880  1.0000
  O   O8        1.0  0.08618  0.18729  0.22860  1.0000
  O   O9        1.0  0.90132  0.95040  0.14645  1.0000
  O   O10       1.0  0.68550  0.16110  0.17185  1.0000
  O   O11       1.0  0.68991  0.12100  0.49310  1.0000
  C   C15       1.0  0.70460  0.12660  0.09470  1.0000
  C   C16       1.0  0.75050  0.09260  0.13230  1.0000
  C   C17       1.0  0.77180  0.05260  0.05460  1.0000
  C   C18       1.0  0.77310  0.10220  0.23870  1.0000
  C   C19       1.0  0.81560  0.02370  0.08215  1.0000
  H   H9        1.0  0.75600  0.04510  0.48170  1.0000
  C   C20       1.0  0.81690  0.07310  0.26785  1.0000
  H   H10       1.0  0.75860  0.12900  0.29260  1.0000
  C   C21       1.0  0.83760  0.03430  0.18920  1.0000
  H   H11       1.0  0.83030  0.99700  0.02835  1.0000
  H   H12       1.0  0.83250  0.07990  0.34135  1.0000
  S   S2        1.0  0.89395  0.99822  0.22715  1.0000
  O   O12       1.0  0.89333  0.98700  0.35075  1.0000
  C   C22       1.0  0.94180  0.04990  0.19860  1.0000
  C   C23       1.0  0.95540  0.09030  0.28495  1.0000
  C   C24       1.0  0.96620  0.04930  0.09240  1.0000
  H   H13       1.0  0.93750  0.09190  0.35675  1.0000
  C   C25       1.0  0.99480  0.12750  0.26505  1.0000
  C   C26       1.0  0.00490  0.08840  0.07330  1.0000
  H   H14       1.0  0.95650  0.02230  0.03315  1.0000
  C   C27       1.0  0.01930  0.12700  0.15940  1.0000
  H   H15       1.0  0.00520  0.15390  0.32470  1.0000
  H   H16       1.0  0.02160  0.08870  0.49995  1.0000
  C   C28       1.0  0.06360  0.16690  0.14090  1.0000
  O   O13       1.0  0.08618  0.31271  0.22860  1.0000
  O   O14       1.0  0.68550  0.33890  0.17185  1.0000
  O   O15       1.0  0.68991  0.37900  0.49310  1.0000
  C   C29       1.0  0.70460  0.37340  0.09470  1.0000
  C   C30       1.0  0.75050  0.40740  0.13230  1.0000
  C   C31       1.0  0.77180  0.44740  0.05460  1.0000
  C   C32       1.0  0.77310  0.39780  0.23870  1.0000
  C   C33       1.0  0.81560  0.47630  0.08215  1.0000
  H   H17       1.0  0.75600  0.45490  0.48170  1.0000
  C   C34       1.0  0.81690  0.42690  0.26785  1.0000
  H   H18       1.0  0.75860  0.37100  0.29260  1.0000
  C   C35       1.0  0.83760  0.46570  0.18920  1.0000
  H   H19       1.0  0.83030  0.50300  0.02835  1.0000
  H   H20       1.0  0.83250  0.42010  0.34135  1.0000
  S   S3        1.0  0.89395  0.50178  0.22715  1.0000
  O   O16       1.0  0.89333  0.51300  0.35075  1.0000
  C   C36       1.0  0.94180  0.45010  0.19860  1.0000
  C   C37       1.0  0.95540  0.40970  0.28495  1.0000
  C   C38       1.0  0.96620  0.45070  0.09240  1.0000
  H   H21       1.0  0.93750  0.40810  0.35675  1.0000
  C   C39       1.0  0.99480  0.37250  0.26505  1.0000
  C   C40       1.0  0.00490  0.41160  0.07330  1.0000
  H   H22       1.0  0.95650  0.47770  0.03315  1.0000
  C   C41       1.0  0.01930  0.37300  0.15940  1.0000
  H   H23       1.0  0.00520  0.34610  0.32470  1.0000
  H   H24       1.0  0.02160  0.41130  0.49995  1.0000
  C   C42       1.0  0.06360  0.33310  0.14090  1.0000
  O   O17       1.0  0.07709  0.31992  0.03880  1.0000
  O   O18       1.0  0.90132  0.54960  0.14645  1.0000
  O   O19       1.0  0.09868  0.45040  0.35355  1.0000
  O   O20       1.0  0.31450  0.66110  0.32815  1.0000
  O   O21       1.0  0.31009  0.62100  0.00690  1.0000
  C   C43       1.0  0.29540  0.62660  0.40530  1.0000
  C   C44       1.0  0.24950  0.59260  0.36770  1.0000
  C   C45       1.0  0.22820  0.55260  0.44540  1.0000
  C   C46       1.0  0.22690  0.60220  0.26130  1.0000
  C   C47       1.0  0.18440  0.52370  0.41785  1.0000
  H   H25       1.0  0.24400  0.54510  0.01830  1.0000
  C   C48       1.0  0.18310  0.57310  0.23215  1.0000
  H   H26       1.0  0.24140  0.62900  0.20740  1.0000
  C   C49       1.0  0.16240  0.53430  0.31080  1.0000
  H   H27       1.0  0.16970  0.49700  0.47165  1.0000
  H   H28       1.0  0.16750  0.57990  0.15865  1.0000
  S   S4        1.0  0.10605  0.49822  0.27285  1.0000
  O   O22       1.0  0.10667  0.48700  0.14925  1.0000
  C   C50       1.0  0.05820  0.54990  0.30140  1.0000
  C   C51       1.0  0.04460  0.59030  0.21505  1.0000
  C   C52       1.0  0.03380  0.54930  0.40760  1.0000
  H   H29       1.0  0.06250  0.59190  0.14325  1.0000
  C   C53       1.0  0.00520  0.62750  0.23495  1.0000
  C   C54       1.0  0.99510  0.58840  0.42670  1.0000
  H   H30       1.0  0.04350  0.52230  0.46685  1.0000
  C   C55       1.0  0.98070  0.62700  0.34060  1.0000
  H   H31       1.0  0.99480  0.65390  0.17530  1.0000
  H   H32       1.0  0.97840  0.58870  0.00005  1.0000
  C   C56       1.0  0.93640  0.66690  0.35910  1.0000
  O   O23       1.0  0.92291  0.68008  0.46120  1.0000
  O   O24       1.0  0.91382  0.68729  0.27140  1.0000
  O   O25       1.0  0.42291  0.81992  0.28880  1.0000
  O   O26       1.0  0.81450  0.83890  0.42185  1.0000
  O   O27       1.0  0.81009  0.87900  0.24310  1.0000
  C   C57       1.0  0.79540  0.87340  0.34470  1.0000
  C   C58       1.0  0.74950  0.90740  0.38230  1.0000
  C   C59       1.0  0.72820  0.94740  0.30460  1.0000
  C   C60       1.0  0.72690  0.89780  0.48870  1.0000
  C   C61       1.0  0.68440  0.97630  0.33215  1.0000
  H   H33       1.0  0.74400  0.95490  0.23170  1.0000
  C   C62       1.0  0.68310  0.92690  0.01785  1.0000
  H   H34       1.0  0.74140  0.87100  0.04260  1.0000
  C   C63       1.0  0.66240  0.96570  0.43920  1.0000
  H   H35       1.0  0.66970  0.00300  0.27835  1.0000
  H   H36       1.0  0.66750  0.92010  0.09135  1.0000
  S   S5        1.0  0.60605  0.00178  0.47715  1.0000
  O   O28       1.0  0.60667  0.01300  0.10075  1.0000
  C   C64       1.0  0.55820  0.95010  0.44860  1.0000
  C   C65       1.0  0.54460  0.90970  0.03495  1.0000
  C   C66       1.0  0.53380  0.95070  0.34240  1.0000
  H   H37       1.0  0.56250  0.90810  0.10675  1.0000
  C   C67       1.0  0.50520  0.87250  0.01505  1.0000
  C   C68       1.0  0.49510  0.91160  0.32330  1.0000
  O   O29       1.0  0.41382  0.81271  0.47860  1.0000
  C   C69       1.0  0.48070  0.87300  0.40940  1.0000
  H   H38       1.0  0.49480  0.84610  0.07470  1.0000
  H   H39       1.0  0.47840  0.91130  0.24995  1.0000
  C   C70       1.0  0.43640  0.83310  0.39090  1.0000
  H   H40       1.0  0.54350  0.97770  0.28315  1.0000
  O   O30       1.0  0.59868  0.04960  0.39645  1.0000
  C   C71       1.0  0.72820  0.55260  0.30460  1.0000
  C   C72       1.0  0.72690  0.60220  0.48870  1.0000
  C   C73       1.0  0.68440  0.52370  0.33215  1.0000
  H   H41       1.0  0.74400  0.54510  0.23170  1.0000
  C   C74       1.0  0.68310  0.57310  0.01785  1.0000
  H   H42       1.0  0.74140  0.62900  0.04260  1.0000
  C   C75       1.0  0.66240  0.53430  0.43920  1.0000
  H   H43       1.0  0.66970  0.49700  0.27835  1.0000
  H   H44       1.0  0.66750  0.57990  0.09135  1.0000
  S   S6        1.0  0.60605  0.49822  0.47715  1.0000
  O   O31       1.0  0.60667  0.48700  0.10075  1.0000
  C   C76       1.0  0.55820  0.54990  0.44860  1.0000
  C   C77       1.0  0.54460  0.59030  0.03495  1.0000
  C   C78       1.0  0.53380  0.54930  0.34240  1.0000
  H   H45       1.0  0.56250  0.59190  0.10675  1.0000
  C   C79       1.0  0.50520  0.62750  0.01505  1.0000
  C   C80       1.0  0.49510  0.58840  0.32330  1.0000
  H   H46       1.0  0.54350  0.52230  0.28315  1.0000
  C   C81       1.0  0.48070  0.62700  0.40940  1.0000
  H   H47       1.0  0.49480  0.65390  0.07470  1.0000
  H   H48       1.0  0.47840  0.58870  0.24995  1.0000
  C   C82       1.0  0.43640  0.66690  0.39090  1.0000
  O   O32       1.0  0.59868  0.45040  0.39645  1.0000
  O   O33       1.0  0.41382  0.68729  0.47860  1.0000
  O   O34       1.0  0.42291  0.68008  0.28880  1.0000
  O   O35       1.0  0.81450  0.66110  0.42185  1.0000
  O   O36       1.0  0.81009  0.62100  0.24310  1.0000
  C   C83       1.0  0.79540  0.62660  0.34470  1.0000
  C   C84       1.0  0.74950  0.59260  0.38230  1.0000
  O   O37       1.0  0.09868  0.04960  0.35355  1.0000
  O   O38       1.0  0.91382  0.81271  0.27140  1.0000
  O   O39       1.0  0.31450  0.83890  0.32815  1.0000
  O   O40       1.0  0.31009  0.87900  0.00690  1.0000
  C   C85       1.0  0.29540  0.87340  0.40530  1.0000
  C   C86       1.0  0.24950  0.90740  0.36770  1.0000
  C   C87       1.0  0.22820  0.94740  0.44540  1.0000
  C   C88       1.0  0.22690  0.89780  0.26130  1.0000
  C   C89       1.0  0.18440  0.97630  0.41785  1.0000
  H   H49       1.0  0.24400  0.95490  0.01830  1.0000
  C   C90       1.0  0.18310  0.92690  0.23215  1.0000
  H   H50       1.0  0.24140  0.87100  0.20740  1.0000
  C   C91       1.0  0.16240  0.96570  0.31080  1.0000
  H   H51       1.0  0.16970  0.00300  0.47165  1.0000
  H   H52       1.0  0.16750  0.92010  0.15865  1.0000
  S   S7        1.0  0.10605  0.00178  0.27285  1.0000
  O   O41       1.0  0.10667  0.01300  0.14925  1.0000
  C   C92       1.0  0.05820  0.95010  0.30140  1.0000
  C   C93       1.0  0.04460  0.90970  0.21505  1.0000
  C   C94       1.0  0.03380  0.95070  0.40760  1.0000
  H   H53       1.0  0.06250  0.90810  0.14325  1.0000
  C   C95       1.0  0.00520  0.87250  0.23495  1.0000
  C   C96       1.0  0.99510  0.91160  0.42670  1.0000
  H   H54       1.0  0.04350  0.97770  0.46685  1.0000
  C   C97       1.0  0.98070  0.87300  0.34060  1.0000
  H   H55       1.0  0.99480  0.84610  0.17530  1.0000
  H   H56       1.0  0.97840  0.91130  0.00005  1.0000
  C   C98       1.0  0.93640  0.83310  0.35910  1.0000
  O   O42       1.0  0.92291  0.81992  0.46120  1.0000
  O   O43       1.0  0.57709  0.18008  0.21120  1.0000
  O   O44       1.0  0.18550  0.16110  0.07815  1.0000
  O   O45       1.0  0.18991  0.12100  0.25690  1.0000
  C   C99       1.0  0.20460  0.12660  0.15530  1.0000
  C   C100      1.0  0.25050  0.09260  0.11770  1.0000
  C   C101      1.0  0.27180  0.05260  0.19540  1.0000
  C   C102      1.0  0.27310  0.10220  0.01130  1.0000
  C   C103      1.0  0.31560  0.02370  0.16785  1.0000
  H   H57       1.0  0.25600  0.04510  0.26830  1.0000
  C   C104      1.0  0.31690  0.07310  0.48215  1.0000
  H   H58       1.0  0.25860  0.12900  0.45740  1.0000
  C   C105      1.0  0.33760  0.03430  0.06080  1.0000
  H   H59       1.0  0.33030  0.99700  0.22165  1.0000
  H   H60       1.0  0.33250  0.07990  0.40865  1.0000
  S   S8        1.0  0.39395  0.99822  0.02285  1.0000
  O   O46       1.0  0.39333  0.98700  0.39925  1.0000
  C   C106      1.0  0.44180  0.04990  0.05140  1.0000
  C   C107      1.0  0.45540  0.09030  0.46505  1.0000
  C   C108      1.0  0.46620  0.04930  0.15760  1.0000
  H   H61       1.0  0.43750  0.09190  0.39325  1.0000
  C   C109      1.0  0.49480  0.12750  0.48495  1.0000
  C   C110      1.0  0.50490  0.08840  0.17670  1.0000
  H   H62       1.0  0.45650  0.02230  0.21685  1.0000
  C   C111      1.0  0.51930  0.12700  0.09060  1.0000
  H   H63       1.0  0.50520  0.15390  0.42530  1.0000
  H   H64       1.0  0.52160  0.08870  0.25005  1.0000
  C   C112      1.0  0.56360  0.16690  0.10910  1.0000
  O   O47       1.0  0.40132  0.95040  0.10355  1.0000
  O   O48       1.0  0.58618  0.18729  0.02140  1.0000
  O   O49       1.0  0.16090  0.25000  0.40810  1.0000
  C   C113      1.0  0.20350  0.25000  0.36375  1.0000
  O   O50       1.0  0.21060  0.25000  0.25480  1.0000
  O   O51       1.0  0.33910  0.75000  0.15810  1.0000
  C   C114      1.0  0.29650  0.75000  0.11375  1.0000
  O   O52       1.0  0.28940  0.75000  0.00480  1.0000
  O   O53       1.0  0.83910  0.75000  0.09190  1.0000
  C   C115      1.0  0.79650  0.75000  0.13625  1.0000
  O   O54       1.0  0.78940  0.75000  0.24520  1.0000
  O   O55       1.0  0.66090  0.25000  0.34190  1.0000
  C   C116      1.0  0.70350  0.25000  0.38625  1.0000
  O   O56       1.0  0.71060  0.25000  0.49520  1.0000
  Na  Na1       1.0  0.37090  0.64371  0.13895  1.0000
  Eu  Eu1       1.0  0.85665  0.75000  0.38243  1.0000
  Na  Na2       1.0  0.12910  0.35629  0.38895  1.0000
  Eu  Eu2       1.0  0.14335  0.25000  0.11757  1.0000
  Na  Na3       1.0  0.37090  0.85629  0.13895  1.0000
  Eu  Eu3       1.0  0.35665  0.75000  0.36757  1.0000
  Na  Na4       1.0  0.12910  0.14371  0.38895  1.0000
  Eu  Eu4       1.0  0.64335  0.25000  0.13242  1.0000
  Na  Na5       1.0  0.62910  0.35629  0.36105  1.0000
  Na  Na6       1.0  0.87090  0.64371  0.11105  1.0000
  Na  Na7       1.0  0.62910  0.14371  0.36105  1.0000
  Na  Na8       1.0  0.87090  0.85629  0.11105  1.0000
  O   O57       1.0  0.18550  0.33890  0.57815  1.0000
  O   O58       1.0  0.18991  0.37900  0.75690  1.0000
  C   C117      1.0  0.20460  0.37340  0.65530  1.0000
  C   C118      1.0  0.25050  0.40740  0.61770  1.0000
  C   C119      1.0  0.27180  0.44740  0.69540  1.0000
  C   C120      1.0  0.27310  0.39780  0.51130  1.0000
  C   C121      1.0  0.31560  0.47630  0.66785  1.0000
  H   H65       1.0  0.25600  0.45490  0.76830  1.0000
  C   C122      1.0  0.31690  0.42690  0.98215  1.0000
  H   H66       1.0  0.25860  0.37100  0.95740  1.0000
  C   C123      1.0  0.33760  0.46570  0.56080  1.0000
  H   H67       1.0  0.33030  0.50300  0.72165  1.0000
  H   H68       1.0  0.33250  0.42010  0.90865  1.0000
  S   S9        1.0  0.39395  0.50178  0.52285  1.0000
  O   O59       1.0  0.39333  0.51300  0.89925  1.0000
  C   C124      1.0  0.44180  0.45010  0.55140  1.0000
  C   C125      1.0  0.45540  0.40970  0.96505  1.0000
  C   C126      1.0  0.46620  0.45070  0.65760  1.0000
  H   H69       1.0  0.43750  0.40810  0.89325  1.0000
  C   C127      1.0  0.49480  0.37250  0.98495  1.0000
  C   C128      1.0  0.50490  0.41160  0.67670  1.0000
  H   H70       1.0  0.45650  0.47770  0.71685  1.0000
  C   C129      1.0  0.51930  0.37300  0.59060  1.0000
  H   H71       1.0  0.50520  0.34610  0.92530  1.0000
  H   H72       1.0  0.52160  0.41130  0.75005  1.0000
  C   C130      1.0  0.56360  0.33310  0.60910  1.0000
  O   O60       1.0  0.58618  0.31271  0.52140  1.0000
  O   O61       1.0  0.40132  0.54960  0.60355  1.0000
  O   O62       1.0  0.57709  0.31992  0.71120  1.0000
  O   O63       1.0  0.07709  0.18008  0.53880  1.0000
  O   O64       1.0  0.08618  0.18729  0.72860  1.0000
  O   O65       1.0  0.90132  0.95040  0.64645  1.0000
  O   O66       1.0  0.68550  0.16110  0.67185  1.0000
  O   O67       1.0  0.68991  0.12100  0.99310  1.0000
  C   C131      1.0  0.70460  0.12660  0.59470  1.0000
  C   C132      1.0  0.75050  0.09260  0.63230  1.0000
  C   C133      1.0  0.77180  0.05260  0.55460  1.0000
  C   C134      1.0  0.77310  0.10220  0.73870  1.0000
  C   C135      1.0  0.81560  0.02370  0.58215  1.0000
  H   H73       1.0  0.75600  0.04510  0.98170  1.0000
  C   C136      1.0  0.81690  0.07310  0.76785  1.0000
  H   H74       1.0  0.75860  0.12900  0.79260  1.0000
  C   C137      1.0  0.83760  0.03430  0.68920  1.0000
  H   H75       1.0  0.83030  0.99700  0.52835  1.0000
  H   H76       1.0  0.83250  0.07990  0.84135  1.0000
  S   S10       1.0  0.89395  0.99822  0.72715  1.0000
  O   O68       1.0  0.89333  0.98700  0.85075  1.0000
  C   C138      1.0  0.94180  0.04990  0.69860  1.0000
  C   C139      1.0  0.95540  0.09030  0.78495  1.0000
  C   C140      1.0  0.96620  0.04930  0.59240  1.0000
  H   H77       1.0  0.93750  0.09190  0.85675  1.0000
  C   C141      1.0  0.99480  0.12750  0.76505  1.0000
  C   C142      1.0  0.00490  0.08840  0.57330  1.0000
  H   H78       1.0  0.95650  0.02230  0.53315  1.0000
  C   C143      1.0  0.01930  0.12700  0.65940  1.0000
  H   H79       1.0  0.00520  0.15390  0.82470  1.0000
  H   H80       1.0  0.02160  0.08870  0.99995  1.0000
  C   C144      1.0  0.06360  0.16690  0.64090  1.0000
  O   O69       1.0  0.08618  0.31271  0.72860  1.0000
  O   O70       1.0  0.68550  0.33890  0.67185  1.0000
  O   O71       1.0  0.68991  0.37900  0.99310  1.0000
  C   C145      1.0  0.70460  0.37340  0.59470  1.0000
  C   C146      1.0  0.75050  0.40740  0.63230  1.0000
  C   C147      1.0  0.77180  0.44740  0.55460  1.0000
  C   C148      1.0  0.77310  0.39780  0.73870  1.0000
  C   C149      1.0  0.81560  0.47630  0.58215  1.0000
  H   H81       1.0  0.75600  0.45490  0.98170  1.0000
  C   C150      1.0  0.81690  0.42690  0.76785  1.0000
  H   H82       1.0  0.75860  0.37100  0.79260  1.0000
  C   C151      1.0  0.83760  0.46570  0.68920  1.0000
  H   H83       1.0  0.83030  0.50300  0.52835  1.0000
  H   H84       1.0  0.83250  0.42010  0.84135  1.0000
  S   S11       1.0  0.89395  0.50178  0.72715  1.0000
  O   O72       1.0  0.89333  0.51300  0.85075  1.0000
  C   C152      1.0  0.94180  0.45010  0.69860  1.0000
  C   C153      1.0  0.95540  0.40970  0.78495  1.0000
  C   C154      1.0  0.96620  0.45070  0.59240  1.0000
  H   H85       1.0  0.93750  0.40810  0.85675  1.0000
  C   C155      1.0  0.99480  0.37250  0.76505  1.0000
  C   C156      1.0  0.00490  0.41160  0.57330  1.0000
  H   H86       1.0  0.95650  0.47770  0.53315  1.0000
  C   C157      1.0  0.01930  0.37300  0.65940  1.0000
  H   H87       1.0  0.00520  0.34610  0.82470  1.0000
  H   H88       1.0  0.02160  0.41130  0.99995  1.0000
  C   C158      1.0  0.06360  0.33310  0.64090  1.0000
  O   O73       1.0  0.07709  0.31992  0.53880  1.0000
  O   O74       1.0  0.90132  0.54960  0.64645  1.0000
  O   O75       1.0  0.09868  0.45040  0.85355  1.0000
  O   O76       1.0  0.31450  0.66110  0.82815  1.0000
  O   O77       1.0  0.31009  0.62100  0.50690  1.0000
  C   C159      1.0  0.29540  0.62660  0.90530  1.0000
  C   C160      1.0  0.24950  0.59260  0.86770  1.0000
  C   C161      1.0  0.22820  0.55260  0.94540  1.0000
  C   C162      1.0  0.22690  0.60220  0.76130  1.0000
  C   C163      1.0  0.18440  0.52370  0.91785  1.0000
  H   H89       1.0  0.24400  0.54510  0.51830  1.0000
  C   C164      1.0  0.18310  0.57310  0.73215  1.0000
  H   H90       1.0  0.24140  0.62900  0.70740  1.0000
  C   C165      1.0  0.16240  0.53430  0.81080  1.0000
  H   H91       1.0  0.16970  0.49700  0.97165  1.0000
  H   H92       1.0  0.16750  0.57990  0.65865  1.0000
  S   S12       1.0  0.10605  0.49822  0.77285  1.0000
  O   O78       1.0  0.10667  0.48700  0.64925  1.0000
  C   C166      1.0  0.05820  0.54990  0.80140  1.0000
  C   C167      1.0  0.04460  0.59030  0.71505  1.0000
  C   C168      1.0  0.03380  0.54930  0.90760  1.0000
  H   H93       1.0  0.06250  0.59190  0.64325  1.0000
  C   C169      1.0  0.00520  0.62750  0.73495  1.0000
  C   C170      1.0  0.99510  0.58840  0.92670  1.0000
  H   H94       1.0  0.04350  0.52230  0.96685  1.0000
  C   C171      1.0  0.98070  0.62700  0.84060  1.0000
  H   H95       1.0  0.99480  0.65390  0.67530  1.0000
  H   H96       1.0  0.97840  0.58870  0.50005  1.0000
  C   C172      1.0  0.93640  0.66690  0.85910  1.0000
  O   O79       1.0  0.92291  0.68008  0.96120  1.0000
  O   O80       1.0  0.91382  0.68729  0.77140  1.0000
  O   O81       1.0  0.42291  0.81992  0.78880  1.0000
  O   O82       1.0  0.81450  0.83890  0.92185  1.0000
  O   O83       1.0  0.81009  0.87900  0.74310  1.0000
  C   C173      1.0  0.79540  0.87340  0.84470  1.0000
  C   C174      1.0  0.74950  0.90740  0.88230  1.0000
  C   C175      1.0  0.72820  0.94740  0.80460  1.0000
  C   C176      1.0  0.72690  0.89780  0.98870  1.0000
  C   C177      1.0  0.68440  0.97630  0.83215  1.0000
  H   H97       1.0  0.74400  0.95490  0.73170  1.0000
  C   C178      1.0  0.68310  0.92690  0.51785  1.0000
  H   H98       1.0  0.74140  0.87100  0.54260  1.0000
  C   C179      1.0  0.66240  0.96570  0.93920  1.0000
  H   H99       1.0  0.66970  0.00300  0.77835  1.0000
  H   H100      1.0  0.66750  0.92010  0.59135  1.0000
  S   S13       1.0  0.60605  0.00178  0.97715  1.0000
  O   O84       1.0  0.60667  0.01300  0.60075  1.0000
  C   C180      1.0  0.55820  0.95010  0.94860  1.0000
  C   C181      1.0  0.54460  0.90970  0.53495  1.0000
  C   C182      1.0  0.53380  0.95070  0.84240  1.0000
  H   H101      1.0  0.56250  0.90810  0.60675  1.0000
  C   C183      1.0  0.50520  0.87250  0.51505  1.0000
  C   C184      1.0  0.49510  0.91160  0.82330  1.0000
  O   O85       1.0  0.41382  0.81271  0.97860  1.0000
  C   C185      1.0  0.48070  0.87300  0.90940  1.0000
  H   H102      1.0  0.49480  0.84610  0.57470  1.0000
  H   H103      1.0  0.47840  0.91130  0.74995  1.0000
  C   C186      1.0  0.43640  0.83310  0.89090  1.0000
  H   H104      1.0  0.54350  0.97770  0.78315  1.0000
  O   O86       1.0  0.59868  0.04960  0.89645  1.0000
  C   C187      1.0  0.72820  0.55260  0.80460  1.0000
  C   C188      1.0  0.72690  0.60220  0.98870  1.0000
  C   C189      1.0  0.68440  0.52370  0.83215  1.0000
  H   H105      1.0  0.74400  0.54510  0.73170  1.0000
  C   C190      1.0  0.68310  0.57310  0.51785  1.0000
  H   H106      1.0  0.74140  0.62900  0.54260  1.0000
  C   C191      1.0  0.66240  0.53430  0.93920  1.0000
  H   H107      1.0  0.66970  0.49700  0.77835  1.0000
  H   H108      1.0  0.66750  0.57990  0.59135  1.0000
  S   S14       1.0  0.60605  0.49822  0.97715  1.0000
  O   O87       1.0  0.60667  0.48700  0.60075  1.0000
  C   C192      1.0  0.55820  0.54990  0.94860  1.0000
  C   C193      1.0  0.54460  0.59030  0.53495  1.0000
  C   C194      1.0  0.53380  0.54930  0.84240  1.0000
  H   H109      1.0  0.56250  0.59190  0.60675  1.0000
  C   C195      1.0  0.50520  0.62750  0.51505  1.0000
  C   C196      1.0  0.49510  0.58840  0.82330  1.0000
  H   H110      1.0  0.54350  0.52230  0.78315  1.0000
  C   C197      1.0  0.48070  0.62700  0.90940  1.0000
  H   H111      1.0  0.49480  0.65390  0.57470  1.0000
  H   H112      1.0  0.47840  0.58870  0.74995  1.0000
  C   C198      1.0  0.43640  0.66690  0.89090  1.0000
  O   O88       1.0  0.59868  0.45040  0.89645  1.0000
  O   O89       1.0  0.41382  0.68729  0.97860  1.0000
  O   O90       1.0  0.42291  0.68008  0.78880  1.0000
  O   O91       1.0  0.81450  0.66110  0.92185  1.0000
  O   O92       1.0  0.81009  0.62100  0.74310  1.0000
  C   C199      1.0  0.79540  0.62660  0.84470  1.0000
  C   C200      1.0  0.74950  0.59260  0.88230  1.0000
  O   O93       1.0  0.09868  0.04960  0.85355  1.0000
  O   O94       1.0  0.91382  0.81271  0.77140  1.0000
  O   O95       1.0  0.31450  0.83890  0.82815  1.0000
  O   O96       1.0  0.31009  0.87900  0.50690  1.0000
  C   C201      1.0  0.29540  0.87340  0.90530  1.0000
  C   C202      1.0  0.24950  0.90740  0.86770  1.0000
  C   C203      1.0  0.22820  0.94740  0.94540  1.0000
  C   C204      1.0  0.22690  0.89780  0.76130  1.0000
  C   C205      1.0  0.18440  0.97630  0.91785  1.0000
  H   H113      1.0  0.24400  0.95490  0.51830  1.0000
  C   C206      1.0  0.18310  0.92690  0.73215  1.0000
  H   H114      1.0  0.24140  0.87100  0.70740  1.0000
  C   C207      1.0  0.16240  0.96570  0.81080  1.0000
  H   H115      1.0  0.16970  0.00300  0.97165  1.0000
  H   H116      1.0  0.16750  0.92010  0.65865  1.0000
  S   S15       1.0  0.10605  0.00178  0.77285  1.0000
  O   O97       1.0  0.10667  0.01300  0.64925  1.0000
  C   C208      1.0  0.05820  0.95010  0.80140  1.0000
  C   C209      1.0  0.04460  0.90970  0.71505  1.0000
  C   C210      1.0  0.03380  0.95070  0.90760  1.0000
  H   H117      1.0  0.06250  0.90810  0.64325  1.0000
  C   C211      1.0  0.00520  0.87250  0.73495  1.0000
  C   C212      1.0  0.99510  0.91160  0.92670  1.0000
  H   H118      1.0  0.04350  0.97770  0.96685  1.0000
  C   C213      1.0  0.98070  0.87300  0.84060  1.0000
  H   H119      1.0  0.99480  0.84610  0.67530  1.0000
  H   H120      1.0  0.97840  0.91130  0.50005  1.0000
  C   C214      1.0  0.93640  0.83310  0.85910  1.0000
  O   O98       1.0  0.92291  0.81992  0.96120  1.0000
  O   O99       1.0  0.57709  0.18008  0.71120  1.0000
  O   O100      1.0  0.18550  0.16110  0.57815  1.0000
  O   O101      1.0  0.18991  0.12100  0.75690  1.0000
  C   C215      1.0  0.20460  0.12660  0.65530  1.0000
  C   C216      1.0  0.25050  0.09260  0.61770  1.0000
  C   C217      1.0  0.27180  0.05260  0.69540  1.0000
  C   C218      1.0  0.27310  0.10220  0.51130  1.0000
  C   C219      1.0  0.31560  0.02370  0.66785  1.0000
  H   H121      1.0  0.25600  0.04510  0.76830  1.0000
  C   C220      1.0  0.31690  0.07310  0.98215  1.0000
  H   H122      1.0  0.25860  0.12900  0.95740  1.0000
  C   C221      1.0  0.33760  0.03430  0.56080  1.0000
  H   H123      1.0  0.33030  0.99700  0.72165  1.0000
  H   H124      1.0  0.33250  0.07990  0.90865  1.0000
  S   S16       1.0  0.39395  0.99822  0.52285  1.0000
  O   O102      1.0  0.39333  0.98700  0.89925  1.0000
  C   C222      1.0  0.44180  0.04990  0.55140  1.0000
  C   C223      1.0  0.45540  0.09030  0.96505  1.0000
  C   C224      1.0  0.46620  0.04930  0.65760  1.0000
  H   H125      1.0  0.43750  0.09190  0.89325  1.0000
  C   C225      1.0  0.49480  0.12750  0.98495  1.0000
  C   C226      1.0  0.50490  0.08840  0.67670  1.0000
  H   H126      1.0  0.45650  0.02230  0.71685  1.0000
  C   C227      1.0  0.51930  0.12700  0.59060  1.0000
  H   H127      1.0  0.50520  0.15390  0.92530  1.0000
  H   H128      1.0  0.52160  0.08870  0.75005  1.0000
  C   C228      1.0  0.56360  0.16690  0.60910  1.0000
  O   O103      1.0  0.40132  0.95040  0.60355  1.0000
  O   O104      1.0  0.58618  0.18729  0.52140  1.0000
  O   O105      1.0  0.16090  0.25000  0.90810  1.0000
  C   C229      1.0  0.20350  0.25000  0.86375  1.0000
  O   O106      1.0  0.21060  0.25000  0.75480  1.0000
  O   O107      1.0  0.33910  0.75000  0.65810  1.0000
  C   C230      1.0  0.29650  0.75000  0.61375  1.0000
  O   O108      1.0  0.28940  0.75000  0.50480  1.0000
  O   O109      1.0  0.83910  0.75000  0.59190  1.0000
  C   C231      1.0  0.79650  0.75000  0.63625  1.0000
  O   O110      1.0  0.78940  0.75000  0.74520  1.0000
  O   O111      1.0  0.66090  0.25000  0.84190  1.0000
  C   C232      1.0  0.70350  0.25000  0.88625  1.0000
  O   O112      1.0  0.71060  0.25000  0.99520  1.0000
  Na  Na9       1.0  0.37090  0.64371  0.63895  1.0000
  Eu  Eu5       1.0  0.85665  0.75000  0.88242  1.0000
  Na  Na10      1.0  0.12910  0.35629  0.88895  1.0000
  Eu  Eu6       1.0  0.14335  0.25000  0.61757  1.0000
  Na  Na11      1.0  0.37090  0.85629  0.63895  1.0000
  Eu  Eu7       1.0  0.35665  0.75000  0.86757  1.0000
  Na  Na12      1.0  0.12910  0.14371  0.88895  1.0000
  Eu  Eu8       1.0  0.64335  0.25000  0.63243  1.0000
  Na  Na13      1.0  0.62910  0.35629  0.86105  1.0000
  Na  Na14      1.0  0.87090  0.64371  0.61105  1.0000
  Na  Na15      1.0  0.62910  0.14371  0.86105  1.0000
  Na  Na16      1.0  0.87090  0.85629  0.61105  1.0000
