data_image0
_chemical_formula_structural       C2NO2COC2NOC3NC2NO4C3NOC2NO3C3NOC2NO3C3NO2C2NO2C3NO2C2NO2NO2C3NO2C4NO2C3NO2C2NO2C3NO2C3NO2C2NO2NO2C3NO2C4NO2C3NO3C2NO2C3NOC2NO2C2NO2C3NO2C2NCO2C2NO2C3NO2C2NOC2NO2COC2NC3NO5C3NOC2NO2CNO3C3NOC3NO2C3NO4C2NO2C3NC2NO2C2NO2C3NO2C2NO2C3NO2C2NO2CO2C2NO2C3NC2NO2C2NO2C3NO2C2NO2C3NO2C2NO2CNC2NO2C2O2COC3NO2CNOC2NO2C4NO2C2NO2COC2NOC3NC2NO4C3NOC2NO3C3NOC2NO3C3NO2C2NO2C3NO2C2NO2NO2C3NO2C4NO2C3NO2C2NO2C3NO2C3NO2C2NO2NO2C3NO2C4NO2C3NO3C2NO2C3NOC2NO2C2NO2C3NO2C2NCO2C2NO2C3NO2C2NOC2NO2COC2NC3NO5C3NOC2NO2CNO2COC2NOC3NO2C3NO4C2NO2C3NC2NO2C2NO2C3NO2C2NO2C4NO2C2NO4C2NO2C3NC2NO2C2NO2C3NO2C2NO2C3NO2C2NO2CNC2NO2C2O2COC3NO2CNOC2NO2C4NO2C2NO2COC2NOC3NC2NO4C3NOC2NO3C3NOC2NO3C3NO2C2NO2C3NO2C2NO2NO2C3NO2C4NO2C3NO2C2NO2C3NO2C3NO2C2NO2NO2C3NO2C4NO2C3NO3C2NO2C3NOC2NO2C2NO2C3NO2C2NCO2C2NO2C3NO2C2NOC2NO2COC3NC2NO5C3NOC2NO2CNO2COC2NOC3NO2C3NO4C2NO2C3NC2NO2C2NO2C3NO2C2NO2C3NO2C3NO4C2NO2C3NC2NO2C2NO2C3NO2C2NO2C3NO2C2NO2CNC2NO2C2O2COC3NO2CNOC2NO2C4NO2Cr64
_chemical_formula_sum              "C480 N192 O384 Cr64"
_cell_length_a       33.1058
_cell_length_b       33.1058
_cell_length_c       33.1058
_cell_angle_alpha    90
_cell_angle_beta     90
_cell_angle_gamma    90

_space_group_name_H-M_alt    "P 1"
_space_group_IT_number       1

loop_
  _space_group_symop_operation_xyz
  'x, y, z'

loop_
  _atom_site_type_symbol
  _atom_site_label
  _atom_site_symmetry_multiplicity
  _atom_site_fract_x
  _atom_site_fract_y
  _atom_site_fract_z
  _atom_site_occupancy
  C   C1        1.0  0.05530  0.10280  0.17110  1.0000
  C   C2        1.0  0.02030  0.09730  0.14060  1.0000
  N   N1        1.0  0.03350  0.09567  0.10060  1.0000
  O   O1        1.0  0.04480  0.10950  0.20690  1.0000
  O   O2        1.0  0.09140  0.09930  0.15750  1.0000
  C   C3        1.0  0.00000  0.09220  0.07760  1.0000
  O   O3        1.0  0.90860  0.09930  0.15750  1.0000
  C   C4        1.0  0.94470  0.10280  0.17110  1.0000
  C   C5        1.0  0.97970  0.09730  0.14060  1.0000
  N   N2        1.0  0.96650  0.09567  0.10060  1.0000
  O   O4        1.0  0.95520  0.10950  0.20690  1.0000
  C   C6        1.0  0.00000  0.59220  0.57760  1.0000
  C   C7        1.0  0.97970  0.59730  0.64060  1.0000
  C   C8        1.0  0.94470  0.60280  0.67110  1.0000
  N   N3        1.0  0.96650  0.59567  0.60060  1.0000
  C   C9        1.0  0.05530  0.60280  0.67110  1.0000
  C   C10       1.0  0.02030  0.59730  0.64060  1.0000
  N   N4        1.0  0.03350  0.59567  0.60060  1.0000
  O   O5        1.0  0.04480  0.60950  0.70690  1.0000
  O   O6        1.0  0.09140  0.59930  0.65750  1.0000
  O   O7        1.0  0.95520  0.60950  0.70690  1.0000
  O   O8        1.0  0.90860  0.59930  0.65750  1.0000
  C   C11       1.0  0.50000  0.09220  0.57760  1.0000
  C   C12       1.0  0.44470  0.10280  0.67110  1.0000
  C   C13       1.0  0.47970  0.09730  0.64060  1.0000
  N   N5        1.0  0.46650  0.09567  0.60060  1.0000
  O   O9        1.0  0.45520  0.10950  0.70690  1.0000
  C   C14       1.0  0.55530  0.10280  0.67110  1.0000
  C   C15       1.0  0.52030  0.09730  0.64060  1.0000
  N   N6        1.0  0.53350  0.09567  0.60060  1.0000
  O   O10       1.0  0.54480  0.10950  0.70690  1.0000
  O   O11       1.0  0.59140  0.09930  0.65750  1.0000
  O   O12       1.0  0.40860  0.09930  0.65750  1.0000
  C   C16       1.0  0.50000  0.59220  0.07760  1.0000
  C   C17       1.0  0.44470  0.60280  0.17110  1.0000
  C   C18       1.0  0.47970  0.59730  0.14060  1.0000
  N   N7        1.0  0.46650  0.59567  0.10060  1.0000
  O   O13       1.0  0.45520  0.60950  0.20690  1.0000
  C   C19       1.0  0.55530  0.60280  0.17110  1.0000
  C   C20       1.0  0.52030  0.59730  0.14060  1.0000
  N   N8        1.0  0.53350  0.59567  0.10060  1.0000
  O   O14       1.0  0.54480  0.60950  0.20690  1.0000
  O   O15       1.0  0.59140  0.59930  0.15750  1.0000
  O   O16       1.0  0.40860  0.59930  0.15750  1.0000
  C   C21       1.0  0.00000  0.90780  0.07760  1.0000
  C   C22       1.0  0.05530  0.89720  0.17110  1.0000
  C   C23       1.0  0.02030  0.90270  0.14060  1.0000
  N   N9        1.0  0.03350  0.90433  0.10060  1.0000
  O   O17       1.0  0.04480  0.89050  0.20690  1.0000
  O   O18       1.0  0.09140  0.90070  0.15750  1.0000
  C   C24       1.0  0.94470  0.89720  0.17110  1.0000
  C   C25       1.0  0.97970  0.90270  0.14060  1.0000
  N   N10       1.0  0.96650  0.90433  0.10060  1.0000
  O   O19       1.0  0.95520  0.89050  0.20690  1.0000
  O   O20       1.0  0.90860  0.90070  0.15750  1.0000
  C   C26       1.0  0.00000  0.40780  0.57760  1.0000
  C   C27       1.0  0.05530  0.39720  0.67110  1.0000
  C   C28       1.0  0.02030  0.40270  0.64060  1.0000
  N   N11       1.0  0.03350  0.40433  0.60060  1.0000
  O   O21       1.0  0.04480  0.39050  0.70690  1.0000
  O   O22       1.0  0.09140  0.40070  0.65750  1.0000
  C   C29       1.0  0.94470  0.39720  0.67110  1.0000
  C   C30       1.0  0.97970  0.40270  0.64060  1.0000
  N   N12       1.0  0.96650  0.40433  0.60060  1.0000
  O   O23       1.0  0.95520  0.39050  0.70690  1.0000
  O   O24       1.0  0.90860  0.40070  0.65750  1.0000
  N   N13       1.0  0.46650  0.90433  0.60060  1.0000
  O   O25       1.0  0.45520  0.89050  0.70690  1.0000
  O   O26       1.0  0.40860  0.90070  0.65750  1.0000
  C   C31       1.0  0.50000  0.90780  0.57760  1.0000
  C   C32       1.0  0.55530  0.89720  0.67110  1.0000
  C   C33       1.0  0.52030  0.90270  0.64060  1.0000
  N   N14       1.0  0.53350  0.90433  0.60060  1.0000
  O   O27       1.0  0.54480  0.89050  0.70690  1.0000
  O   O28       1.0  0.59140  0.90070  0.65750  1.0000
  C   C34       1.0  0.44470  0.89720  0.67110  1.0000
  C   C35       1.0  0.47970  0.90270  0.64060  1.0000
  C   C36       1.0  0.44470  0.39720  0.17110  1.0000
  C   C37       1.0  0.47970  0.40270  0.14060  1.0000
  N   N15       1.0  0.46650  0.40433  0.10060  1.0000
  O   O29       1.0  0.45520  0.39050  0.20690  1.0000
  O   O30       1.0  0.40860  0.40070  0.15750  1.0000
  C   C38       1.0  0.50000  0.40780  0.07760  1.0000
  C   C39       1.0  0.55530  0.39720  0.17110  1.0000
  C   C40       1.0  0.52030  0.40270  0.14060  1.0000
  N   N16       1.0  0.53350  0.40433  0.10060  1.0000
  O   O31       1.0  0.54480  0.39050  0.20690  1.0000
  O   O32       1.0  0.59140  0.40070  0.15750  1.0000
  C   C41       1.0  0.94470  0.10280  0.82890  1.0000
  C   C42       1.0  0.97970  0.09730  0.85940  1.0000
  N   N17       1.0  0.96650  0.09567  0.89940  1.0000
  O   O33       1.0  0.95520  0.10950  0.79310  1.0000
  O   O34       1.0  0.90860  0.09930  0.84250  1.0000
  C   C43       1.0  0.00000  0.09220  0.92240  1.0000
  C   C44       1.0  0.05530  0.10280  0.82890  1.0000
  C   C45       1.0  0.02030  0.09730  0.85940  1.0000
  N   N18       1.0  0.03350  0.09567  0.89940  1.0000
  O   O35       1.0  0.04480  0.10950  0.79310  1.0000
  O   O36       1.0  0.09140  0.09930  0.84250  1.0000
  C   C46       1.0  0.00000  0.59220  0.42240  1.0000
  C   C47       1.0  0.94470  0.60280  0.32890  1.0000
  C   C48       1.0  0.97970  0.59730  0.35940  1.0000
  N   N19       1.0  0.96650  0.59567  0.39940  1.0000
  O   O37       1.0  0.95520  0.60950  0.29310  1.0000
  O   O38       1.0  0.90860  0.59930  0.34250  1.0000
  C   C49       1.0  0.05530  0.60280  0.32890  1.0000
  C   C50       1.0  0.02030  0.59730  0.35940  1.0000
  N   N20       1.0  0.03350  0.59567  0.39940  1.0000
  O   O39       1.0  0.04480  0.60950  0.29310  1.0000
  O   O40       1.0  0.09140  0.59930  0.34250  1.0000
  N   N21       1.0  0.53350  0.09567  0.39940  1.0000
  O   O41       1.0  0.54480  0.10950  0.29310  1.0000
  O   O42       1.0  0.59140  0.09930  0.34250  1.0000
  C   C51       1.0  0.50000  0.09220  0.42240  1.0000
  C   C52       1.0  0.44470  0.10280  0.32890  1.0000
  C   C53       1.0  0.47970  0.09730  0.35940  1.0000
  N   N22       1.0  0.46650  0.09567  0.39940  1.0000
  O   O43       1.0  0.45520  0.10950  0.29310  1.0000
  O   O44       1.0  0.40860  0.09930  0.34250  1.0000
  C   C54       1.0  0.55530  0.10280  0.32890  1.0000
  C   C55       1.0  0.52030  0.09730  0.35940  1.0000
  C   C56       1.0  0.55530  0.60280  0.82890  1.0000
  C   C57       1.0  0.52030  0.59730  0.85940  1.0000
  N   N23       1.0  0.53350  0.59567  0.89940  1.0000
  O   O45       1.0  0.54480  0.60950  0.79310  1.0000
  O   O46       1.0  0.59140  0.59930  0.84250  1.0000
  C   C58       1.0  0.50000  0.59220  0.92240  1.0000
  C   C59       1.0  0.44470  0.60280  0.82890  1.0000
  C   C60       1.0  0.47970  0.59730  0.85940  1.0000
  N   N24       1.0  0.46650  0.59567  0.89940  1.0000
  O   O47       1.0  0.45520  0.60950  0.79310  1.0000
  O   O48       1.0  0.40860  0.59930  0.84250  1.0000
  O   O49       1.0  0.09140  0.90070  0.84250  1.0000
  C   C61       1.0  0.97970  0.90270  0.85940  1.0000
  C   C62       1.0  0.94470  0.89720  0.82890  1.0000
  N   N25       1.0  0.96650  0.90433  0.89940  1.0000
  O   O50       1.0  0.95520  0.89050  0.79310  1.0000
  O   O51       1.0  0.90860  0.90070  0.84250  1.0000
  C   C63       1.0  0.00000  0.90780  0.92240  1.0000
  C   C64       1.0  0.05530  0.89720  0.82890  1.0000
  C   C65       1.0  0.02030  0.90270  0.85940  1.0000
  N   N26       1.0  0.03350  0.90433  0.89940  1.0000
  O   O52       1.0  0.04480  0.89050  0.79310  1.0000
  C   C66       1.0  0.05530  0.39720  0.32890  1.0000
  C   C67       1.0  0.02030  0.40270  0.35940  1.0000
  N   N27       1.0  0.03350  0.40433  0.39940  1.0000
  O   O53       1.0  0.04480  0.39050  0.29310  1.0000
  O   O54       1.0  0.09140  0.40070  0.34250  1.0000
  C   C68       1.0  0.97970  0.40270  0.35940  1.0000
  C   C69       1.0  0.94470  0.39720  0.32890  1.0000
  N   N28       1.0  0.96650  0.40433  0.39940  1.0000
  O   O55       1.0  0.90860  0.40070  0.34250  1.0000
  O   O56       1.0  0.95520  0.39050  0.29310  1.0000
  C   C70       1.0  0.00000  0.40780  0.42240  1.0000
  C   C71       1.0  0.55530  0.89720  0.32890  1.0000
  C   C72       1.0  0.52030  0.90270  0.35940  1.0000
  N   N29       1.0  0.53350  0.90433  0.39940  1.0000
  O   O57       1.0  0.54480  0.89050  0.29310  1.0000
  O   O58       1.0  0.59140  0.90070  0.34250  1.0000
  C   C73       1.0  0.47970  0.90270  0.35940  1.0000
  C   C74       1.0  0.44470  0.89720  0.32890  1.0000
  N   N30       1.0  0.46650  0.90433  0.39940  1.0000
  C   C75       1.0  0.50000  0.90780  0.42240  1.0000
  O   O59       1.0  0.40860  0.90070  0.34250  1.0000
  O   O60       1.0  0.45520  0.89050  0.29310  1.0000
  C   C76       1.0  0.55530  0.39720  0.82890  1.0000
  C   C77       1.0  0.52030  0.40270  0.85940  1.0000
  N   N31       1.0  0.53350  0.40433  0.89940  1.0000
  O   O61       1.0  0.54480  0.39050  0.79310  1.0000
  O   O62       1.0  0.59140  0.40070  0.84250  1.0000
  C   C78       1.0  0.47970  0.40270  0.85940  1.0000
  C   C79       1.0  0.50000  0.40780  0.92240  1.0000
  C   C80       1.0  0.44470  0.39720  0.82890  1.0000
  N   N32       1.0  0.46650  0.40433  0.89940  1.0000
  O   O63       1.0  0.40860  0.40070  0.84250  1.0000
  O   O64       1.0  0.45520  0.39050  0.79310  1.0000
  C   C81       1.0  0.17110  0.94470  0.10280  1.0000
  C   C82       1.0  0.14060  0.97970  0.09730  1.0000
  N   N33       1.0  0.10060  0.96650  0.09567  1.0000
  O   O65       1.0  0.20690  0.95520  0.10950  1.0000
  C   C83       1.0  0.17110  0.05530  0.10280  1.0000
  C   C84       1.0  0.14060  0.02030  0.09730  1.0000
  N   N34       1.0  0.10060  0.03350  0.09567  1.0000
  O   O66       1.0  0.20690  0.04480  0.10950  1.0000
  O   O67       1.0  0.15750  0.09140  0.09930  1.0000
  C   C85       1.0  0.07760  0.00000  0.09220  1.0000
  O   O68       1.0  0.15750  0.90860  0.09930  1.0000
  C   C86       1.0  0.17110  0.44470  0.60280  1.0000
  C   C87       1.0  0.14060  0.47970  0.59730  1.0000
  N   N35       1.0  0.10060  0.46650  0.59567  1.0000
  C   C88       1.0  0.07760  0.50000  0.59220  1.0000
  C   C89       1.0  0.17110  0.55530  0.60280  1.0000
  C   C90       1.0  0.14060  0.52030  0.59730  1.0000
  N   N36       1.0  0.10060  0.53350  0.59567  1.0000
  O   O69       1.0  0.20690  0.54480  0.60950  1.0000
  O   O70       1.0  0.15750  0.59140  0.59930  1.0000
  O   O71       1.0  0.20690  0.45520  0.60950  1.0000
  O   O72       1.0  0.15750  0.40860  0.59930  1.0000
  O   O73       1.0  0.70690  0.95520  0.60950  1.0000
  C   C91       1.0  0.57760  0.00000  0.59220  1.0000
  C   C92       1.0  0.67110  0.94470  0.60280  1.0000
  C   C93       1.0  0.64060  0.97970  0.59730  1.0000
  N   N37       1.0  0.60060  0.96650  0.59567  1.0000
  O   O74       1.0  0.65750  0.90860  0.59930  1.0000
  C   C94       1.0  0.67110  0.05530  0.60280  1.0000
  C   C95       1.0  0.64060  0.02030  0.59730  1.0000
  N   N38       1.0  0.60060  0.03350  0.59567  1.0000
  O   O75       1.0  0.70690  0.04480  0.60950  1.0000
  O   O76       1.0  0.65750  0.09140  0.59930  1.0000
  C   C96       1.0  0.64060  0.52030  0.09730  1.0000
  N   N39       1.0  0.60060  0.53350  0.09567  1.0000
  O   O77       1.0  0.70690  0.54480  0.10950  1.0000
  O   O78       1.0  0.65750  0.59140  0.09930  1.0000
  O   O79       1.0  0.65750  0.40860  0.09930  1.0000
  C   C97       1.0  0.57760  0.50000  0.09220  1.0000
  C   C98       1.0  0.67110  0.44470  0.10280  1.0000
  C   C99       1.0  0.64060  0.47970  0.09730  1.0000
  N   N40       1.0  0.60060  0.46650  0.09567  1.0000
  O   O80       1.0  0.70690  0.45520  0.10950  1.0000
  C   C100      1.0  0.67110  0.55530  0.10280  1.0000
  C   C101      1.0  0.17110  0.94470  0.89720  1.0000
  C   C102      1.0  0.14060  0.97970  0.90270  1.0000
  N   N41       1.0  0.10060  0.96650  0.90433  1.0000
  O   O81       1.0  0.20690  0.95520  0.89050  1.0000
  O   O82       1.0  0.15750  0.90860  0.90070  1.0000
  C   C103      1.0  0.07760  0.00000  0.90780  1.0000
  C   C104      1.0  0.17110  0.05530  0.89720  1.0000
  C   C105      1.0  0.14060  0.02030  0.90270  1.0000
  N   N42       1.0  0.10060  0.03350  0.90433  1.0000
  O   O83       1.0  0.20690  0.04480  0.89050  1.0000
  O   O84       1.0  0.15750  0.09140  0.90070  1.0000
  O   O85       1.0  0.20690  0.54480  0.39050  1.0000
  O   O86       1.0  0.15750  0.59140  0.40070  1.0000
  C   C106      1.0  0.17110  0.44470  0.39720  1.0000
  C   C107      1.0  0.14060  0.47970  0.40270  1.0000
  N   N43       1.0  0.10060  0.46650  0.40433  1.0000
  O   O87       1.0  0.20690  0.45520  0.39050  1.0000
  O   O88       1.0  0.15750  0.40860  0.40070  1.0000
  C   C108      1.0  0.07760  0.50000  0.40780  1.0000
  C   C109      1.0  0.17110  0.55530  0.39720  1.0000
  C   C110      1.0  0.14060  0.52030  0.40270  1.0000
  N   N44       1.0  0.10060  0.53350  0.40433  1.0000
  C   C111      1.0  0.67110  0.05530  0.39720  1.0000
  C   C112      1.0  0.64060  0.02030  0.40270  1.0000
  N   N45       1.0  0.60060  0.03350  0.40433  1.0000
  O   O89       1.0  0.70690  0.04480  0.39050  1.0000
  O   O90       1.0  0.65750  0.09140  0.40070  1.0000
  C   C113      1.0  0.67110  0.94470  0.39720  1.0000
  C   C114      1.0  0.64060  0.97970  0.40270  1.0000
  N   N46       1.0  0.60060  0.96650  0.40433  1.0000
  O   O91       1.0  0.70690  0.95520  0.39050  1.0000
  O   O92       1.0  0.65750  0.90860  0.40070  1.0000
  C   C115      1.0  0.57760  0.00000  0.40780  1.0000
  C   C116      1.0  0.67110  0.55530  0.89720  1.0000
  C   C117      1.0  0.64060  0.52030  0.90270  1.0000
  N   N47       1.0  0.60060  0.53350  0.90433  1.0000
  O   O93       1.0  0.70690  0.54480  0.89050  1.0000
  O   O94       1.0  0.65750  0.59140  0.90070  1.0000
  C   C118      1.0  0.67110  0.44470  0.89720  1.0000
  C   C119      1.0  0.64060  0.47970  0.90270  1.0000
  N   N48       1.0  0.60060  0.46650  0.90433  1.0000
  O   O95       1.0  0.70690  0.45520  0.89050  1.0000
  O   O96       1.0  0.65750  0.40860  0.90070  1.0000
  C   C120      1.0  0.57760  0.50000  0.90780  1.0000
  C   C121      1.0  0.82890  0.05530  0.10280  1.0000
  C   C122      1.0  0.85940  0.02030  0.09730  1.0000
  N   N49       1.0  0.89940  0.03350  0.09567  1.0000
  O   O97       1.0  0.79310  0.04480  0.10950  1.0000
  O   O98       1.0  0.84250  0.09140  0.09930  1.0000
  C   C123      1.0  0.82890  0.94470  0.10280  1.0000
  C   C124      1.0  0.85940  0.97970  0.09730  1.0000
  N   N50       1.0  0.89940  0.96650  0.09567  1.0000
  O   O99       1.0  0.79310  0.95520  0.10950  1.0000
  O   O100      1.0  0.84250  0.90860  0.09930  1.0000
  C   C125      1.0  0.92240  0.00000  0.09220  1.0000
  O   O101      1.0  0.79310  0.45520  0.60950  1.0000
  O   O102      1.0  0.84250  0.40860  0.59930  1.0000
  C   C126      1.0  0.82890  0.55530  0.60280  1.0000
  C   C127      1.0  0.85940  0.52030  0.59730  1.0000
  N   N51       1.0  0.89940  0.53350  0.59567  1.0000
  O   O103      1.0  0.79310  0.54480  0.60950  1.0000
  O   O104      1.0  0.84250  0.59140  0.59930  1.0000
  C   C128      1.0  0.92240  0.50000  0.59220  1.0000
  C   C129      1.0  0.82890  0.44470  0.60280  1.0000
  C   C130      1.0  0.85940  0.47970  0.59730  1.0000
  N   N52       1.0  0.89940  0.46650  0.59567  1.0000
  C   C131      1.0  0.32890  0.94470  0.60280  1.0000
  C   C132      1.0  0.35940  0.97970  0.59730  1.0000
  N   N53       1.0  0.39940  0.96650  0.59567  1.0000
  O   O105      1.0  0.29310  0.95520  0.60950  1.0000
  O   O106      1.0  0.34250  0.90860  0.59930  1.0000
  C   C133      1.0  0.32890  0.05530  0.60280  1.0000
  C   C134      1.0  0.35940  0.02030  0.59730  1.0000
  N   N54       1.0  0.39940  0.03350  0.59567  1.0000
  O   O107      1.0  0.29310  0.04480  0.60950  1.0000
  O   O108      1.0  0.34250  0.09140  0.59930  1.0000
  C   C135      1.0  0.42240  0.00000  0.59220  1.0000
  C   C136      1.0  0.32890  0.44470  0.10280  1.0000
  C   C137      1.0  0.35940  0.47970  0.09730  1.0000
  N   N55       1.0  0.39940  0.46650  0.09567  1.0000
  O   O109      1.0  0.29310  0.45520  0.10950  1.0000
  O   O110      1.0  0.34250  0.40860  0.09930  1.0000
  C   C138      1.0  0.32890  0.55530  0.10280  1.0000
  C   C139      1.0  0.35940  0.52030  0.09730  1.0000
  N   N56       1.0  0.39940  0.53350  0.09567  1.0000
  O   O111      1.0  0.29310  0.54480  0.10950  1.0000
  O   O112      1.0  0.34250  0.59140  0.09930  1.0000
  C   C140      1.0  0.42240  0.50000  0.09220  1.0000
  C   C141      1.0  0.82890  0.05530  0.89720  1.0000
  C   C142      1.0  0.85940  0.02030  0.90270  1.0000
  N   N57       1.0  0.89940  0.03350  0.90433  1.0000
  O   O113      1.0  0.79310  0.04480  0.89050  1.0000
  O   O114      1.0  0.84250  0.09140  0.90070  1.0000
  C   C143      1.0  0.85940  0.97970  0.90270  1.0000
  C   C144      1.0  0.82890  0.94470  0.89720  1.0000
  N   N58       1.0  0.89940  0.96650  0.90433  1.0000
  O   O115      1.0  0.84250  0.90860  0.90070  1.0000
  O   O116      1.0  0.79310  0.95520  0.89050  1.0000
  C   C145      1.0  0.92240  0.00000  0.90780  1.0000
  N   N59       1.0  0.89940  0.46650  0.40433  1.0000
  C   C146      1.0  0.82890  0.55530  0.39720  1.0000
  C   C147      1.0  0.85940  0.52030  0.40270  1.0000
  N   N60       1.0  0.89940  0.53350  0.40433  1.0000
  O   O117      1.0  0.79310  0.54480  0.39050  1.0000
  O   O118      1.0  0.84250  0.59140  0.40070  1.0000
  C   C148      1.0  0.85940  0.47970  0.40270  1.0000
  C   C149      1.0  0.82890  0.44470  0.39720  1.0000
  O   O119      1.0  0.79310  0.45520  0.39050  1.0000
  O   O120      1.0  0.84250  0.40860  0.40070  1.0000
  C   C150      1.0  0.92240  0.50000  0.40780  1.0000
  O   O121      1.0  0.34250  0.90860  0.40070  1.0000
  C   C151      1.0  0.32890  0.94470  0.39720  1.0000
  C   C152      1.0  0.32890  0.05530  0.39720  1.0000
  C   C153      1.0  0.35940  0.02030  0.40270  1.0000
  N   N61       1.0  0.39940  0.03350  0.40433  1.0000
  O   O122      1.0  0.29310  0.04480  0.39050  1.0000
  O   O123      1.0  0.34250  0.09140  0.40070  1.0000
  C   C154      1.0  0.35940  0.97970  0.40270  1.0000
  N   N62       1.0  0.39940  0.96650  0.40433  1.0000
  O   O124      1.0  0.29310  0.95520  0.39050  1.0000
  C   C155      1.0  0.42240  0.00000  0.40780  1.0000
  C   C156      1.0  0.35940  0.47970  0.90270  1.0000
  N   N63       1.0  0.39940  0.46650  0.90433  1.0000
  O   O125      1.0  0.29310  0.45520  0.89050  1.0000
  O   O126      1.0  0.34250  0.40860  0.90070  1.0000
  C   C157      1.0  0.32890  0.44470  0.89720  1.0000
  C   C158      1.0  0.42240  0.50000  0.90780  1.0000
  C   C159      1.0  0.32890  0.55530  0.89720  1.0000
  C   C160      1.0  0.35940  0.52030  0.90270  1.0000
  N   N64       1.0  0.39940  0.53350  0.90433  1.0000
  O   O127      1.0  0.29310  0.54480  0.89050  1.0000
  O   O128      1.0  0.34250  0.59140  0.90070  1.0000
  C   C161      1.0  0.10280  0.17110  0.05530  1.0000
  C   C162      1.0  0.09730  0.14060  0.02030  1.0000
  N   N65       1.0  0.09567  0.10060  0.03350  1.0000
  O   O129      1.0  0.10950  0.20690  0.04480  1.0000
  O   O130      1.0  0.09930  0.15750  0.09140  1.0000
  C   C163      1.0  0.09220  0.07760  0.00000  1.0000
  O   O131      1.0  0.09930  0.15750  0.90860  1.0000
  C   C164      1.0  0.10280  0.17110  0.94470  1.0000
  C   C165      1.0  0.09730  0.14060  0.97970  1.0000
  N   N66       1.0  0.09567  0.10060  0.96650  1.0000
  O   O132      1.0  0.10950  0.20690  0.95520  1.0000
  C   C166      1.0  0.09220  0.57760  0.50000  1.0000
  C   C167      1.0  0.09730  0.64060  0.47970  1.0000
  C   C168      1.0  0.10280  0.67110  0.44470  1.0000
  N   N67       1.0  0.09567  0.60060  0.46650  1.0000
  C   C169      1.0  0.10280  0.67110  0.55530  1.0000
  C   C170      1.0  0.09730  0.64060  0.52030  1.0000
  N   N68       1.0  0.09567  0.60060  0.53350  1.0000
  O   O133      1.0  0.10950  0.70690  0.54480  1.0000
  O   O134      1.0  0.09930  0.65750  0.59140  1.0000
  O   O135      1.0  0.09930  0.65750  0.40860  1.0000
  O   O136      1.0  0.10950  0.70690  0.45520  1.0000
  C   C171      1.0  0.59220  0.07760  0.50000  1.0000
  C   C172      1.0  0.60280  0.17110  0.44470  1.0000
  C   C173      1.0  0.59730  0.14060  0.47970  1.0000
  N   N69       1.0  0.59567  0.10060  0.46650  1.0000
  O   O137      1.0  0.60950  0.20690  0.45520  1.0000
  C   C174      1.0  0.60280  0.17110  0.55530  1.0000
  C   C175      1.0  0.59730  0.14060  0.52030  1.0000
  N   N70       1.0  0.59567  0.10060  0.53350  1.0000
  O   O138      1.0  0.60950  0.20690  0.54480  1.0000
  O   O139      1.0  0.59930  0.15750  0.59140  1.0000
  O   O140      1.0  0.59930  0.15750  0.40860  1.0000
  C   C176      1.0  0.59220  0.57760  0.00000  1.0000
  C   C177      1.0  0.60280  0.67110  0.94470  1.0000
  C   C178      1.0  0.59730  0.64060  0.97970  1.0000
  N   N71       1.0  0.59567  0.60060  0.96650  1.0000
  O   O141      1.0  0.60950  0.70690  0.95520  1.0000
  C   C179      1.0  0.60280  0.67110  0.05530  1.0000
  C   C180      1.0  0.59730  0.64060  0.02030  1.0000
  N   N72       1.0  0.59567  0.60060  0.03350  1.0000
  O   O142      1.0  0.60950  0.70690  0.04480  1.0000
  O   O143      1.0  0.59930  0.65750  0.09140  1.0000
  O   O144      1.0  0.59930  0.65750  0.90860  1.0000
  C   C181      1.0  0.90780  0.07760  0.00000  1.0000
  C   C182      1.0  0.89720  0.17110  0.05530  1.0000
  C   C183      1.0  0.90270  0.14060  0.02030  1.0000
  N   N73       1.0  0.90433  0.10060  0.03350  1.0000
  O   O145      1.0  0.89050  0.20690  0.04480  1.0000
  O   O146      1.0  0.90070  0.15750  0.09140  1.0000
  C   C184      1.0  0.89720  0.17110  0.94470  1.0000
  C   C185      1.0  0.90270  0.14060  0.97970  1.0000
  N   N74       1.0  0.90433  0.10060  0.96650  1.0000
  O   O147      1.0  0.89050  0.20690  0.95520  1.0000
  O   O148      1.0  0.90070  0.15750  0.90860  1.0000
  C   C186      1.0  0.90780  0.57760  0.50000  1.0000
  C   C187      1.0  0.89720  0.67110  0.55530  1.0000
  C   C188      1.0  0.90270  0.64060  0.52030  1.0000
  N   N75       1.0  0.90433  0.60060  0.53350  1.0000
  O   O149      1.0  0.89050  0.70690  0.54480  1.0000
  O   O150      1.0  0.90070  0.65750  0.59140  1.0000
  C   C189      1.0  0.89720  0.67110  0.44470  1.0000
  C   C190      1.0  0.90270  0.64060  0.47970  1.0000
  N   N76       1.0  0.90433  0.60060  0.46650  1.0000
  O   O151      1.0  0.89050  0.70690  0.45520  1.0000
  O   O152      1.0  0.90070  0.65750  0.40860  1.0000
  N   N77       1.0  0.40433  0.10060  0.46650  1.0000
  O   O153      1.0  0.39050  0.20690  0.45520  1.0000
  O   O154      1.0  0.40070  0.15750  0.40860  1.0000
  C   C191      1.0  0.40780  0.07760  0.50000  1.0000
  C   C192      1.0  0.39720  0.17110  0.55530  1.0000
  C   C193      1.0  0.40270  0.14060  0.52030  1.0000
  N   N78       1.0  0.40433  0.10060  0.53350  1.0000
  O   O155      1.0  0.39050  0.20690  0.54480  1.0000
  O   O156      1.0  0.40070  0.15750  0.59140  1.0000
  C   C194      1.0  0.39720  0.17110  0.44470  1.0000
  C   C195      1.0  0.40270  0.14060  0.47970  1.0000
  C   C196      1.0  0.39720  0.67110  0.94470  1.0000
  C   C197      1.0  0.40270  0.64060  0.97970  1.0000
  N   N79       1.0  0.40433  0.60060  0.96650  1.0000
  O   O157      1.0  0.39050  0.70690  0.95520  1.0000
  O   O158      1.0  0.40070  0.65750  0.90860  1.0000
  C   C198      1.0  0.40780  0.57760  0.00000  1.0000
  C   C199      1.0  0.39720  0.67110  0.05530  1.0000
  C   C200      1.0  0.40270  0.64060  0.02030  1.0000
  N   N80       1.0  0.40433  0.60060  0.03350  1.0000
  O   O159      1.0  0.39050  0.70690  0.04480  1.0000
  O   O160      1.0  0.40070  0.65750  0.09140  1.0000
  C   C201      1.0  0.10280  0.82890  0.94470  1.0000
  C   C202      1.0  0.09730  0.85940  0.97970  1.0000
  N   N81       1.0  0.09567  0.89940  0.96650  1.0000
  O   O161      1.0  0.10950  0.79310  0.95520  1.0000
  O   O162      1.0  0.09930  0.84250  0.90860  1.0000
  C   C203      1.0  0.09220  0.92240  0.00000  1.0000
  C   C204      1.0  0.10280  0.82890  0.05530  1.0000
  C   C205      1.0  0.09730  0.85940  0.02030  1.0000
  N   N82       1.0  0.09567  0.89940  0.03350  1.0000
  O   O163      1.0  0.10950  0.79310  0.04480  1.0000
  O   O164      1.0  0.09930  0.84250  0.09140  1.0000
  C   C206      1.0  0.09220  0.42240  0.50000  1.0000
  C   C207      1.0  0.10280  0.32890  0.44470  1.0000
  C   C208      1.0  0.09730  0.35940  0.47970  1.0000
  N   N83       1.0  0.09567  0.39940  0.46650  1.0000
  O   O165      1.0  0.10950  0.29310  0.45520  1.0000
  O   O166      1.0  0.09930  0.34250  0.40860  1.0000
  C   C209      1.0  0.10280  0.32890  0.55530  1.0000
  C   C210      1.0  0.09730  0.35940  0.52030  1.0000
  N   N84       1.0  0.09567  0.39940  0.53350  1.0000
  O   O167      1.0  0.10950  0.29310  0.54480  1.0000
  O   O168      1.0  0.09930  0.34250  0.59140  1.0000
  N   N85       1.0  0.59567  0.89940  0.53350  1.0000
  O   O169      1.0  0.60950  0.79310  0.54480  1.0000
  O   O170      1.0  0.59930  0.84250  0.59140  1.0000
  C   C211      1.0  0.59220  0.92240  0.50000  1.0000
  C   C212      1.0  0.60280  0.82890  0.44470  1.0000
  C   C213      1.0  0.59730  0.85940  0.47970  1.0000
  N   N86       1.0  0.59567  0.89940  0.46650  1.0000
  O   O171      1.0  0.60950  0.79310  0.45520  1.0000
  O   O172      1.0  0.59930  0.84250  0.40860  1.0000
  C   C214      1.0  0.60280  0.82890  0.55530  1.0000
  C   C215      1.0  0.59730  0.85940  0.52030  1.0000
  C   C216      1.0  0.60280  0.32890  0.05530  1.0000
  C   C217      1.0  0.59730  0.35940  0.02030  1.0000
  N   N87       1.0  0.59567  0.39940  0.03350  1.0000
  O   O173      1.0  0.60950  0.29310  0.04480  1.0000
  O   O174      1.0  0.59930  0.34250  0.09140  1.0000
  C   C218      1.0  0.59220  0.42240  0.00000  1.0000
  C   C219      1.0  0.60280  0.32890  0.94470  1.0000
  C   C220      1.0  0.59730  0.35940  0.97970  1.0000
  N   N88       1.0  0.59567  0.39940  0.96650  1.0000
  O   O175      1.0  0.60950  0.29310  0.95520  1.0000
  O   O176      1.0  0.59930  0.34250  0.90860  1.0000
  O   O177      1.0  0.90070  0.84250  0.09140  1.0000
  C   C221      1.0  0.90270  0.85940  0.97970  1.0000
  C   C222      1.0  0.89720  0.82890  0.94470  1.0000
  N   N89       1.0  0.90433  0.89940  0.96650  1.0000
  O   O178      1.0  0.89050  0.79310  0.95520  1.0000
  O   O179      1.0  0.90070  0.84250  0.90860  1.0000
  C   C223      1.0  0.90780  0.92240  0.00000  1.0000
  C   C224      1.0  0.89720  0.82890  0.05530  1.0000
  C   C225      1.0  0.90270  0.85940  0.02030  1.0000
  N   N90       1.0  0.90433  0.89940  0.03350  1.0000
  O   O180      1.0  0.89050  0.79310  0.04480  1.0000
  C   C226      1.0  0.89720  0.32890  0.55530  1.0000
  C   C227      1.0  0.90270  0.35940  0.52030  1.0000
  N   N91       1.0  0.90433  0.39940  0.53350  1.0000
  O   O181      1.0  0.89050  0.29310  0.54480  1.0000
  O   O182      1.0  0.90070  0.34250  0.59140  1.0000
  C   C228      1.0  0.90270  0.35940  0.47970  1.0000
  C   C229      1.0  0.89720  0.32890  0.44470  1.0000
  N   N92       1.0  0.90433  0.39940  0.46650  1.0000
  O   O183      1.0  0.90070  0.34250  0.40860  1.0000
  O   O184      1.0  0.89050  0.29310  0.45520  1.0000
  C   C230      1.0  0.90780  0.42240  0.50000  1.0000
  C   C231      1.0  0.39720  0.82890  0.55530  1.0000
  C   C232      1.0  0.40270  0.85940  0.52030  1.0000
  N   N93       1.0  0.40433  0.89940  0.53350  1.0000
  O   O185      1.0  0.39050  0.79310  0.54480  1.0000
  O   O186      1.0  0.40070  0.84250  0.59140  1.0000
  C   C233      1.0  0.40270  0.85940  0.47970  1.0000
  C   C234      1.0  0.39720  0.82890  0.44470  1.0000
  N   N94       1.0  0.40433  0.89940  0.46650  1.0000
  C   C235      1.0  0.40780  0.92240  0.50000  1.0000
  O   O187      1.0  0.39050  0.79310  0.45520  1.0000
  O   O188      1.0  0.40070  0.84250  0.40860  1.0000
  C   C236      1.0  0.39720  0.32890  0.05530  1.0000
  C   C237      1.0  0.40270  0.35940  0.02030  1.0000
  N   N95       1.0  0.40433  0.39940  0.03350  1.0000
  O   O189      1.0  0.39050  0.29310  0.04480  1.0000
  O   O190      1.0  0.40070  0.34250  0.09140  1.0000
  C   C238      1.0  0.40270  0.35940  0.97970  1.0000
  C   C239      1.0  0.40780  0.42240  0.00000  1.0000
  C   C240      1.0  0.39720  0.32890  0.94470  1.0000
  N   N96       1.0  0.40433  0.39940  0.96650  1.0000
  O   O191      1.0  0.39050  0.29310  0.95520  1.0000
  O   O192      1.0  0.40070  0.34250  0.90860  1.0000
  C   C241      1.0  0.60280  0.44470  0.32890  1.0000
  C   C242      1.0  0.59730  0.47970  0.35940  1.0000
  N   N97       1.0  0.59567  0.46650  0.39940  1.0000
  O   O193      1.0  0.60950  0.45520  0.29310  1.0000
  C   C243      1.0  0.60280  0.55530  0.32890  1.0000
  C   C244      1.0  0.59730  0.52030  0.35940  1.0000
  N   N98       1.0  0.59567  0.53350  0.39940  1.0000
  O   O194      1.0  0.60950  0.54480  0.29310  1.0000
  O   O195      1.0  0.59930  0.59140  0.34250  1.0000
  C   C245      1.0  0.59220  0.50000  0.42240  1.0000
  O   O196      1.0  0.59930  0.40860  0.34250  1.0000
  C   C246      1.0  0.60280  0.94470  0.82890  1.0000
  C   C247      1.0  0.59730  0.97970  0.85940  1.0000
  N   N99       1.0  0.59567  0.96650  0.89940  1.0000
  C   C248      1.0  0.59220  0.00000  0.92240  1.0000
  C   C249      1.0  0.60280  0.05530  0.82890  1.0000
  C   C250      1.0  0.59730  0.02030  0.85940  1.0000
  N   N100      1.0  0.59567  0.03350  0.89940  1.0000
  O   O197      1.0  0.60950  0.04480  0.79310  1.0000
  O   O198      1.0  0.59930  0.09140  0.84250  1.0000
  O   O199      1.0  0.59930  0.90860  0.84250  1.0000
  O   O200      1.0  0.60950  0.95520  0.79310  1.0000
  O   O201      1.0  0.09930  0.40860  0.84250  1.0000
  C   C251      1.0  0.09220  0.50000  0.92240  1.0000
  C   C252      1.0  0.10280  0.44470  0.82890  1.0000
  C   C253      1.0  0.09730  0.47970  0.85940  1.0000
  N   N101      1.0  0.09567  0.46650  0.89940  1.0000
  O   O202      1.0  0.10950  0.45520  0.79310  1.0000
  C   C254      1.0  0.10280  0.55530  0.82890  1.0000
  C   C255      1.0  0.09730  0.52030  0.85940  1.0000
  N   N102      1.0  0.09567  0.53350  0.89940  1.0000
  O   O203      1.0  0.10950  0.54480  0.79310  1.0000
  O   O204      1.0  0.09930  0.59140  0.84250  1.0000
  C   C256      1.0  0.09730  0.02030  0.35940  1.0000
  N   N103      1.0  0.09567  0.03350  0.39940  1.0000
  O   O205      1.0  0.10950  0.04480  0.29310  1.0000
  O   O206      1.0  0.09930  0.09140  0.34250  1.0000
  C   C257      1.0  0.09220  0.00000  0.42240  1.0000
  O   O207      1.0  0.09930  0.90860  0.34250  1.0000
  C   C258      1.0  0.10280  0.94470  0.32890  1.0000
  C   C259      1.0  0.09730  0.97970  0.35940  1.0000
  N   N104      1.0  0.09567  0.96650  0.39940  1.0000
  O   O208      1.0  0.10950  0.95520  0.29310  1.0000
  C   C260      1.0  0.10280  0.05530  0.32890  1.0000
  C   C261      1.0  0.39720  0.44470  0.32890  1.0000
  C   C262      1.0  0.40270  0.47970  0.35940  1.0000
  N   N105      1.0  0.40433  0.46650  0.39940  1.0000
  O   O209      1.0  0.39050  0.45520  0.29310  1.0000
  O   O210      1.0  0.40070  0.40860  0.34250  1.0000
  C   C263      1.0  0.40780  0.50000  0.42240  1.0000
  C   C264      1.0  0.39720  0.55530  0.32890  1.0000
  C   C265      1.0  0.40270  0.52030  0.35940  1.0000
  N   N106      1.0  0.40433  0.53350  0.39940  1.0000
  O   O211      1.0  0.39050  0.54480  0.29310  1.0000
  O   O212      1.0  0.40070  0.59140  0.34250  1.0000
  O   O213      1.0  0.39050  0.04480  0.79310  1.0000
  O   O214      1.0  0.40070  0.09140  0.84250  1.0000
  C   C266      1.0  0.39720  0.94470  0.82890  1.0000
  C   C267      1.0  0.40270  0.97970  0.85940  1.0000
  N   N107      1.0  0.40433  0.96650  0.89940  1.0000
  O   O215      1.0  0.39050  0.95520  0.79310  1.0000
  O   O216      1.0  0.40070  0.90860  0.84250  1.0000
  C   C268      1.0  0.40780  0.00000  0.92240  1.0000
  C   C269      1.0  0.39720  0.05530  0.82890  1.0000
  C   C270      1.0  0.40270  0.02030  0.85940  1.0000
  N   N108      1.0  0.40433  0.03350  0.89940  1.0000
  C   C271      1.0  0.89720  0.55530  0.82890  1.0000
  C   C272      1.0  0.90270  0.52030  0.85940  1.0000
  N   N109      1.0  0.90433  0.53350  0.89940  1.0000
  O   O217      1.0  0.89050  0.54480  0.79310  1.0000
  O   O218      1.0  0.90070  0.59140  0.84250  1.0000
  C   C273      1.0  0.89720  0.44470  0.82890  1.0000
  C   C274      1.0  0.90270  0.47970  0.85940  1.0000
  N   N110      1.0  0.90433  0.46650  0.89940  1.0000
  O   O219      1.0  0.89050  0.45520  0.79310  1.0000
  O   O220      1.0  0.90070  0.40860  0.84250  1.0000
  C   C275      1.0  0.90780  0.50000  0.92240  1.0000
  C   C276      1.0  0.89720  0.05530  0.32890  1.0000
  C   C277      1.0  0.90270  0.02030  0.35940  1.0000
  N   N111      1.0  0.90433  0.03350  0.39940  1.0000
  O   O221      1.0  0.89050  0.04480  0.29310  1.0000
  O   O222      1.0  0.90070  0.09140  0.34250  1.0000
  C   C278      1.0  0.89720  0.94470  0.32890  1.0000
  C   C279      1.0  0.90270  0.97970  0.35940  1.0000
  N   N112      1.0  0.90433  0.96650  0.39940  1.0000
  O   O223      1.0  0.89050  0.95520  0.29310  1.0000
  O   O224      1.0  0.90070  0.90860  0.34250  1.0000
  C   C280      1.0  0.90780  0.00000  0.42240  1.0000
  C   C281      1.0  0.59220  0.50000  0.57760  1.0000
  C   C282      1.0  0.59730  0.52030  0.64060  1.0000
  C   C283      1.0  0.60280  0.55530  0.67110  1.0000
  N   N113      1.0  0.59567  0.53350  0.60060  1.0000
  O   O225      1.0  0.59930  0.59140  0.65750  1.0000
  O   O226      1.0  0.60950  0.54480  0.70690  1.0000
  C   C284      1.0  0.60280  0.44470  0.67110  1.0000
  C   C285      1.0  0.59730  0.47970  0.64060  1.0000
  N   N114      1.0  0.59567  0.46650  0.60060  1.0000
  O   O227      1.0  0.60950  0.45520  0.70690  1.0000
  O   O228      1.0  0.59930  0.40860  0.65750  1.0000
  O   O229      1.0  0.60950  0.95520  0.20690  1.0000
  O   O230      1.0  0.59930  0.90860  0.15750  1.0000
  C   C286      1.0  0.60280  0.05530  0.17110  1.0000
  C   C287      1.0  0.59730  0.02030  0.14060  1.0000
  N   N115      1.0  0.59567  0.03350  0.10060  1.0000
  O   O231      1.0  0.60950  0.04480  0.20690  1.0000
  O   O232      1.0  0.59930  0.09140  0.15750  1.0000
  C   C288      1.0  0.59220  0.00000  0.07760  1.0000
  C   C289      1.0  0.60280  0.94470  0.17110  1.0000
  C   C290      1.0  0.59730  0.97970  0.14060  1.0000
  N   N116      1.0  0.59567  0.96650  0.10060  1.0000
  C   C291      1.0  0.10280  0.44470  0.17110  1.0000
  C   C292      1.0  0.09730  0.47970  0.14060  1.0000
  N   N117      1.0  0.09567  0.46650  0.10060  1.0000
  O   O233      1.0  0.10950  0.45520  0.20690  1.0000
  O   O234      1.0  0.09930  0.40860  0.15750  1.0000
  C   C293      1.0  0.10280  0.55530  0.17110  1.0000
  C   C294      1.0  0.09730  0.52030  0.14060  1.0000
  N   N118      1.0  0.09567  0.53350  0.10060  1.0000
  O   O235      1.0  0.10950  0.54480  0.20690  1.0000
  O   O236      1.0  0.09930  0.59140  0.15750  1.0000
  C   C295      1.0  0.09220  0.50000  0.07760  1.0000
  C   C296      1.0  0.10280  0.94470  0.67110  1.0000
  C   C297      1.0  0.09730  0.97970  0.64060  1.0000
  N   N119      1.0  0.09567  0.96650  0.60060  1.0000
  O   O237      1.0  0.10950  0.95520  0.70690  1.0000
  O   O238      1.0  0.09930  0.90860  0.65750  1.0000
  C   C298      1.0  0.10280  0.05530  0.67110  1.0000
  C   C299      1.0  0.09730  0.02030  0.64060  1.0000
  N   N120      1.0  0.09567  0.03350  0.60060  1.0000
  O   O239      1.0  0.10950  0.04480  0.70690  1.0000
  O   O240      1.0  0.09930  0.09140  0.65750  1.0000
  C   C300      1.0  0.09220  0.00000  0.57760  1.0000
  C   C301      1.0  0.39720  0.55530  0.67110  1.0000
  C   C302      1.0  0.40270  0.52030  0.64060  1.0000
  N   N121      1.0  0.40433  0.53350  0.60060  1.0000
  O   O241      1.0  0.39050  0.54480  0.70690  1.0000
  O   O242      1.0  0.40070  0.59140  0.65750  1.0000
  C   C303      1.0  0.40270  0.47970  0.64060  1.0000
  C   C304      1.0  0.39720  0.44470  0.67110  1.0000
  N   N122      1.0  0.40433  0.46650  0.60060  1.0000
  O   O243      1.0  0.39050  0.45520  0.70690  1.0000
  O   O244      1.0  0.40070  0.40860  0.65750  1.0000
  C   C305      1.0  0.40780  0.50000  0.57760  1.0000
  N   N123      1.0  0.40433  0.96650  0.10060  1.0000
  C   C306      1.0  0.39720  0.05530  0.17110  1.0000
  C   C307      1.0  0.40270  0.02030  0.14060  1.0000
  N   N124      1.0  0.40433  0.03350  0.10060  1.0000
  O   O245      1.0  0.39050  0.04480  0.20690  1.0000
  O   O246      1.0  0.40070  0.09140  0.15750  1.0000
  C   C308      1.0  0.40270  0.97970  0.14060  1.0000
  C   C309      1.0  0.39720  0.94470  0.17110  1.0000
  O   O247      1.0  0.39050  0.95520  0.20690  1.0000
  O   O248      1.0  0.40070  0.90860  0.15750  1.0000
  C   C310      1.0  0.40780  0.00000  0.07760  1.0000
  O   O249      1.0  0.90070  0.40860  0.15750  1.0000
  C   C311      1.0  0.89720  0.44470  0.17110  1.0000
  C   C312      1.0  0.89720  0.55530  0.17110  1.0000
  C   C313      1.0  0.90270  0.52030  0.14060  1.0000
  N   N125      1.0  0.90433  0.53350  0.10060  1.0000
  O   O250      1.0  0.89050  0.54480  0.20690  1.0000
  O   O251      1.0  0.90070  0.59140  0.15750  1.0000
  C   C314      1.0  0.90270  0.47970  0.14060  1.0000
  N   N126      1.0  0.90433  0.46650  0.10060  1.0000
  O   O252      1.0  0.89050  0.45520  0.20690  1.0000
  C   C315      1.0  0.90780  0.50000  0.07760  1.0000
  C   C316      1.0  0.90270  0.97970  0.64060  1.0000
  N   N127      1.0  0.90433  0.96650  0.60060  1.0000
  O   O253      1.0  0.89050  0.95520  0.70690  1.0000
  O   O254      1.0  0.90070  0.90860  0.65750  1.0000
  C   C317      1.0  0.89720  0.94470  0.67110  1.0000
  C   C318      1.0  0.90780  0.00000  0.57760  1.0000
  C   C319      1.0  0.89720  0.05530  0.67110  1.0000
  C   C320      1.0  0.90270  0.02030  0.64060  1.0000
  N   N128      1.0  0.90433  0.03350  0.60060  1.0000
  O   O255      1.0  0.89050  0.04480  0.70690  1.0000
  O   O256      1.0  0.90070  0.09140  0.65750  1.0000
  C   C321      1.0  0.55530  0.67110  0.39720  1.0000
  C   C322      1.0  0.52030  0.64060  0.40270  1.0000
  N   N129      1.0  0.53350  0.60060  0.40433  1.0000
  O   O257      1.0  0.54480  0.70690  0.39050  1.0000
  O   O258      1.0  0.59140  0.65750  0.40070  1.0000
  C   C323      1.0  0.50000  0.57760  0.40780  1.0000
  O   O259      1.0  0.40860  0.65750  0.40070  1.0000
  C   C324      1.0  0.44470  0.67110  0.39720  1.0000
  C   C325      1.0  0.47970  0.64060  0.40270  1.0000
  N   N130      1.0  0.46650  0.60060  0.40433  1.0000
  O   O260      1.0  0.45520  0.70690  0.39050  1.0000
  C   C326      1.0  0.50000  0.07760  0.90780  1.0000
  C   C327      1.0  0.47970  0.14060  0.90270  1.0000
  C   C328      1.0  0.44470  0.17110  0.89720  1.0000
  N   N131      1.0  0.46650  0.10060  0.90433  1.0000
  C   C329      1.0  0.55530  0.17110  0.89720  1.0000
  C   C330      1.0  0.52030  0.14060  0.90270  1.0000
  N   N132      1.0  0.53350  0.10060  0.90433  1.0000
  O   O261      1.0  0.54480  0.20690  0.89050  1.0000
  O   O262      1.0  0.59140  0.15750  0.90070  1.0000
  O   O263      1.0  0.45520  0.20690  0.89050  1.0000
  O   O264      1.0  0.40860  0.15750  0.90070  1.0000
  C   C331      1.0  0.00000  0.57760  0.90780  1.0000
  C   C332      1.0  0.94470  0.67110  0.89720  1.0000
  C   C333      1.0  0.97970  0.64060  0.90270  1.0000
  N   N133      1.0  0.96650  0.60060  0.90433  1.0000
  O   O265      1.0  0.95520  0.70690  0.89050  1.0000
  C   C334      1.0  0.05530  0.67110  0.89720  1.0000
  C   C335      1.0  0.02030  0.64060  0.90270  1.0000
  N   N134      1.0  0.03350  0.60060  0.90433  1.0000
  O   O266      1.0  0.04480  0.70690  0.89050  1.0000
  O   O267      1.0  0.09140  0.65750  0.90070  1.0000
  O   O268      1.0  0.90860  0.65750  0.90070  1.0000
  C   C336      1.0  0.00000  0.07760  0.40780  1.0000
  C   C337      1.0  0.94470  0.17110  0.39720  1.0000
  C   C338      1.0  0.97970  0.14060  0.40270  1.0000
  N   N135      1.0  0.96650  0.10060  0.40433  1.0000
  O   O269      1.0  0.95520  0.20690  0.39050  1.0000
  C   C339      1.0  0.05530  0.17110  0.39720  1.0000
  C   C340      1.0  0.02030  0.14060  0.40270  1.0000
  N   N136      1.0  0.03350  0.10060  0.40433  1.0000
  O   O270      1.0  0.04480  0.20690  0.39050  1.0000
  O   O271      1.0  0.09140  0.15750  0.40070  1.0000
  O   O272      1.0  0.90860  0.15750  0.40070  1.0000
  C   C341      1.0  0.50000  0.57760  0.59220  1.0000
  C   C342      1.0  0.55530  0.67110  0.60280  1.0000
  C   C343      1.0  0.52030  0.64060  0.59730  1.0000
  N   N137      1.0  0.53350  0.60060  0.59567  1.0000
  O   O273      1.0  0.54480  0.70690  0.60950  1.0000
  O   O274      1.0  0.59140  0.65750  0.59930  1.0000
  C   C344      1.0  0.44470  0.67110  0.60280  1.0000
  C   C345      1.0  0.47970  0.64060  0.59730  1.0000
  N   N138      1.0  0.46650  0.60060  0.59567  1.0000
  O   O275      1.0  0.45520  0.70690  0.60950  1.0000
  O   O276      1.0  0.40860  0.65750  0.59930  1.0000
  C   C346      1.0  0.50000  0.07760  0.09220  1.0000
  C   C347      1.0  0.55530  0.17110  0.10280  1.0000
  C   C348      1.0  0.52030  0.14060  0.09730  1.0000
  N   N139      1.0  0.53350  0.10060  0.09567  1.0000
  O   O277      1.0  0.54480  0.20690  0.10950  1.0000
  O   O278      1.0  0.59140  0.15750  0.09930  1.0000
  C   C349      1.0  0.44470  0.17110  0.10280  1.0000
  C   C350      1.0  0.47970  0.14060  0.09730  1.0000
  N   N140      1.0  0.46650  0.10060  0.09567  1.0000
  O   O279      1.0  0.45520  0.20690  0.10950  1.0000
  O   O280      1.0  0.40860  0.15750  0.09930  1.0000
  N   N141      1.0  0.96650  0.60060  0.09567  1.0000
  O   O281      1.0  0.95520  0.70690  0.10950  1.0000
  O   O282      1.0  0.90860  0.65750  0.09930  1.0000
  C   C351      1.0  0.00000  0.57760  0.09220  1.0000
  C   C352      1.0  0.05530  0.67110  0.10280  1.0000
  C   C353      1.0  0.02030  0.64060  0.09730  1.0000
  N   N142      1.0  0.03350  0.60060  0.09567  1.0000
  O   O283      1.0  0.04480  0.70690  0.10950  1.0000
  O   O284      1.0  0.09140  0.65750  0.09930  1.0000
  C   C354      1.0  0.94470  0.67110  0.10280  1.0000
  C   C355      1.0  0.97970  0.64060  0.09730  1.0000
  C   C356      1.0  0.94470  0.17110  0.60280  1.0000
  C   C357      1.0  0.97970  0.14060  0.59730  1.0000
  N   N143      1.0  0.96650  0.10060  0.59567  1.0000
  O   O285      1.0  0.95520  0.20690  0.60950  1.0000
  O   O286      1.0  0.90860  0.15750  0.59930  1.0000
  C   C358      1.0  0.00000  0.07760  0.59220  1.0000
  C   C359      1.0  0.05530  0.17110  0.60280  1.0000
  C   C360      1.0  0.02030  0.14060  0.59730  1.0000
  N   N144      1.0  0.03350  0.10060  0.59567  1.0000
  O   O287      1.0  0.04480  0.20690  0.60950  1.0000
  O   O288      1.0  0.09140  0.15750  0.59930  1.0000
  C   C361      1.0  0.44470  0.32890  0.39720  1.0000
  C   C362      1.0  0.47970  0.35940  0.40270  1.0000
  N   N145      1.0  0.46650  0.39940  0.40433  1.0000
  O   O289      1.0  0.45520  0.29310  0.39050  1.0000
  O   O290      1.0  0.40860  0.34250  0.40070  1.0000
  C   C363      1.0  0.50000  0.42240  0.40780  1.0000
  C   C364      1.0  0.55530  0.32890  0.39720  1.0000
  C   C365      1.0  0.52030  0.35940  0.40270  1.0000
  N   N146      1.0  0.53350  0.39940  0.40433  1.0000
  O   O291      1.0  0.54480  0.29310  0.39050  1.0000
  O   O292      1.0  0.59140  0.34250  0.40070  1.0000
  C   C366      1.0  0.50000  0.92240  0.90780  1.0000
  C   C367      1.0  0.44470  0.82890  0.89720  1.0000
  C   C368      1.0  0.47970  0.85940  0.90270  1.0000
  N   N147      1.0  0.46650  0.89940  0.90433  1.0000
  O   O293      1.0  0.45520  0.79310  0.89050  1.0000
  O   O294      1.0  0.40860  0.84250  0.90070  1.0000
  C   C369      1.0  0.55530  0.82890  0.89720  1.0000
  C   C370      1.0  0.52030  0.85940  0.90270  1.0000
  N   N148      1.0  0.53350  0.89940  0.90433  1.0000
  O   O295      1.0  0.54480  0.79310  0.89050  1.0000
  O   O296      1.0  0.59140  0.84250  0.90070  1.0000
  N   N149      1.0  0.03350  0.39940  0.90433  1.0000
  O   O297      1.0  0.04480  0.29310  0.89050  1.0000
  O   O298      1.0  0.09140  0.34250  0.90070  1.0000
  C   C371      1.0  0.00000  0.42240  0.90780  1.0000
  C   C372      1.0  0.94470  0.32890  0.89720  1.0000
  C   C373      1.0  0.97970  0.35940  0.90270  1.0000
  N   N150      1.0  0.96650  0.39940  0.90433  1.0000
  O   O299      1.0  0.95520  0.29310  0.89050  1.0000
  O   O300      1.0  0.90860  0.34250  0.90070  1.0000
  C   C374      1.0  0.05530  0.32890  0.89720  1.0000
  C   C375      1.0  0.02030  0.35940  0.90270  1.0000
  C   C376      1.0  0.05530  0.82890  0.39720  1.0000
  C   C377      1.0  0.02030  0.85940  0.40270  1.0000
  N   N151      1.0  0.03350  0.89940  0.40433  1.0000
  O   O301      1.0  0.04480  0.79310  0.39050  1.0000
  O   O302      1.0  0.09140  0.84250  0.40070  1.0000
  C   C378      1.0  0.00000  0.92240  0.40780  1.0000
  C   C379      1.0  0.94470  0.82890  0.39720  1.0000
  C   C380      1.0  0.97970  0.85940  0.40270  1.0000
  N   N152      1.0  0.96650  0.89940  0.40433  1.0000
  O   O303      1.0  0.95520  0.79310  0.39050  1.0000
  O   O304      1.0  0.90860  0.84250  0.40070  1.0000
  O   O305      1.0  0.59140  0.34250  0.59930  1.0000
  C   C381      1.0  0.47970  0.35940  0.59730  1.0000
  C   C382      1.0  0.44470  0.32890  0.60280  1.0000
  N   N153      1.0  0.46650  0.39940  0.59567  1.0000
  O   O306      1.0  0.45520  0.29310  0.60950  1.0000
  O   O307      1.0  0.40860  0.34250  0.59930  1.0000
  C   C383      1.0  0.50000  0.42240  0.59220  1.0000
  C   C384      1.0  0.55530  0.32890  0.60280  1.0000
  C   C385      1.0  0.52030  0.35940  0.59730  1.0000
  N   N154      1.0  0.53350  0.39940  0.59567  1.0000
  O   O308      1.0  0.54480  0.29310  0.60950  1.0000
  C   C386      1.0  0.55530  0.82890  0.10280  1.0000
  C   C387      1.0  0.52030  0.85940  0.09730  1.0000
  N   N155      1.0  0.53350  0.89940  0.09567  1.0000
  O   O309      1.0  0.54480  0.79310  0.10950  1.0000
  O   O310      1.0  0.59140  0.84250  0.09930  1.0000
  C   C388      1.0  0.47970  0.85940  0.09730  1.0000
  C   C389      1.0  0.44470  0.82890  0.10280  1.0000
  N   N156      1.0  0.46650  0.89940  0.09567  1.0000
  O   O311      1.0  0.40860  0.84250  0.09930  1.0000
  O   O312      1.0  0.45520  0.79310  0.10950  1.0000
  C   C390      1.0  0.50000  0.92240  0.09220  1.0000
  C   C391      1.0  0.05530  0.32890  0.10280  1.0000
  C   C392      1.0  0.02030  0.35940  0.09730  1.0000
  N   N157      1.0  0.03350  0.39940  0.09567  1.0000
  O   O313      1.0  0.04480  0.29310  0.10950  1.0000
  O   O314      1.0  0.09140  0.34250  0.09930  1.0000
  C   C393      1.0  0.97970  0.35940  0.09730  1.0000
  C   C394      1.0  0.94470  0.32890  0.10280  1.0000
  N   N158      1.0  0.96650  0.39940  0.09567  1.0000
  C   C395      1.0  0.00000  0.42240  0.09220  1.0000
  O   O315      1.0  0.95520  0.29310  0.10950  1.0000
  O   O316      1.0  0.90860  0.34250  0.09930  1.0000
  C   C396      1.0  0.05530  0.82890  0.60280  1.0000
  C   C397      1.0  0.02030  0.85940  0.59730  1.0000
  N   N159      1.0  0.03350  0.89940  0.59567  1.0000
  O   O317      1.0  0.04480  0.79310  0.60950  1.0000
  O   O318      1.0  0.09140  0.84250  0.59930  1.0000
  C   C398      1.0  0.97970  0.85940  0.59730  1.0000
  C   C399      1.0  0.00000  0.92240  0.59220  1.0000
  C   C400      1.0  0.94470  0.82890  0.60280  1.0000
  N   N160      1.0  0.96650  0.89940  0.59567  1.0000
  O   O319      1.0  0.90860  0.84250  0.59930  1.0000
  O   O320      1.0  0.95520  0.79310  0.60950  1.0000
  C   C401      1.0  0.67110  0.60280  0.55530  1.0000
  C   C402      1.0  0.64060  0.59730  0.52030  1.0000
  N   N161      1.0  0.60060  0.59567  0.53350  1.0000
  O   O321      1.0  0.70690  0.60950  0.54480  1.0000
  C   C403      1.0  0.67110  0.60280  0.44470  1.0000
  C   C404      1.0  0.64060  0.59730  0.47970  1.0000
  N   N162      1.0  0.60060  0.59567  0.46650  1.0000
  O   O322      1.0  0.70690  0.60950  0.45520  1.0000
  O   O323      1.0  0.65750  0.59930  0.40860  1.0000
  C   C405      1.0  0.57760  0.59220  0.50000  1.0000
  O   O324      1.0  0.65750  0.59930  0.59140  1.0000
  C   C406      1.0  0.57760  0.09220  0.00000  1.0000
  C   C407      1.0  0.64060  0.09730  0.02030  1.0000
  C   C408      1.0  0.67110  0.10280  0.05530  1.0000
  N   N163      1.0  0.60060  0.09567  0.03350  1.0000
  C   C409      1.0  0.67110  0.10280  0.94470  1.0000
  C   C410      1.0  0.64060  0.09730  0.97970  1.0000
  N   N164      1.0  0.60060  0.09567  0.96650  1.0000
  O   O325      1.0  0.70690  0.10950  0.95520  1.0000
  O   O326      1.0  0.65750  0.09930  0.90860  1.0000
  O   O327      1.0  0.65750  0.09930  0.09140  1.0000
  O   O328      1.0  0.70690  0.10950  0.04480  1.0000
  O   O329      1.0  0.15750  0.59930  0.09140  1.0000
  C   C411      1.0  0.07760  0.59220  0.00000  1.0000
  C   C412      1.0  0.17110  0.60280  0.05530  1.0000
  C   C413      1.0  0.14060  0.59730  0.02030  1.0000
  N   N165      1.0  0.10060  0.59567  0.03350  1.0000
  O   O330      1.0  0.20690  0.60950  0.04480  1.0000
  C   C414      1.0  0.17110  0.60280  0.94470  1.0000
  C   C415      1.0  0.14060  0.59730  0.97970  1.0000
  N   N166      1.0  0.10060  0.59567  0.96650  1.0000
  O   O331      1.0  0.20690  0.60950  0.95520  1.0000
  O   O332      1.0  0.15750  0.59930  0.90860  1.0000
  C   C416      1.0  0.14060  0.09730  0.47970  1.0000
  N   N167      1.0  0.10060  0.09567  0.46650  1.0000
  O   O333      1.0  0.20690  0.10950  0.45520  1.0000
  O   O334      1.0  0.15750  0.09930  0.40860  1.0000
  C   C417      1.0  0.07760  0.09220  0.50000  1.0000
  O   O335      1.0  0.15750  0.09930  0.59140  1.0000
  C   C418      1.0  0.17110  0.10280  0.55530  1.0000
  C   C419      1.0  0.14060  0.09730  0.52030  1.0000
  N   N168      1.0  0.10060  0.09567  0.53350  1.0000
  O   O336      1.0  0.20690  0.10950  0.54480  1.0000
  C   C420      1.0  0.17110  0.10280  0.44470  1.0000
  C   C421      1.0  0.67110  0.39720  0.55530  1.0000
  C   C422      1.0  0.64060  0.40270  0.52030  1.0000
  N   N169      1.0  0.60060  0.40433  0.53350  1.0000
  O   O337      1.0  0.70690  0.39050  0.54480  1.0000
  O   O338      1.0  0.65750  0.40070  0.59140  1.0000
  C   C423      1.0  0.57760  0.40780  0.50000  1.0000
  C   C424      1.0  0.67110  0.39720  0.44470  1.0000
  C   C425      1.0  0.64060  0.40270  0.47970  1.0000
  N   N170      1.0  0.60060  0.40433  0.46650  1.0000
  O   O339      1.0  0.70690  0.39050  0.45520  1.0000
  O   O340      1.0  0.65750  0.40070  0.40860  1.0000
  O   O341      1.0  0.70690  0.89050  0.95520  1.0000
  O   O342      1.0  0.65750  0.90070  0.90860  1.0000
  C   C426      1.0  0.67110  0.89720  0.05530  1.0000
  C   C427      1.0  0.64060  0.90270  0.02030  1.0000
  N   N171      1.0  0.60060  0.90433  0.03350  1.0000
  O   O343      1.0  0.70690  0.89050  0.04480  1.0000
  O   O344      1.0  0.65750  0.90070  0.09140  1.0000
  C   C428      1.0  0.57760  0.90780  0.00000  1.0000
  C   C429      1.0  0.67110  0.89720  0.94470  1.0000
  C   C430      1.0  0.64060  0.90270  0.97970  1.0000
  N   N172      1.0  0.60060  0.90433  0.96650  1.0000
  C   C431      1.0  0.17110  0.39720  0.94470  1.0000
  C   C432      1.0  0.14060  0.40270  0.97970  1.0000
  N   N173      1.0  0.10060  0.40433  0.96650  1.0000
  O   O345      1.0  0.20690  0.39050  0.95520  1.0000
  O   O346      1.0  0.15750  0.40070  0.90860  1.0000
  C   C433      1.0  0.17110  0.39720  0.05530  1.0000
  C   C434      1.0  0.14060  0.40270  0.02030  1.0000
  N   N174      1.0  0.10060  0.40433  0.03350  1.0000
  O   O347      1.0  0.20690  0.39050  0.04480  1.0000
  O   O348      1.0  0.15750  0.40070  0.09140  1.0000
  C   C435      1.0  0.07760  0.40780  0.00000  1.0000
  C   C436      1.0  0.17110  0.89720  0.44470  1.0000
  C   C437      1.0  0.14060  0.90270  0.47970  1.0000
  N   N175      1.0  0.10060  0.90433  0.46650  1.0000
  O   O349      1.0  0.20690  0.89050  0.45520  1.0000
  O   O350      1.0  0.15750  0.90070  0.40860  1.0000
  C   C438      1.0  0.17110  0.89720  0.55530  1.0000
  C   C439      1.0  0.14060  0.90270  0.52030  1.0000
  N   N176      1.0  0.10060  0.90433  0.53350  1.0000
  O   O351      1.0  0.20690  0.89050  0.54480  1.0000
  O   O352      1.0  0.15750  0.90070  0.59140  1.0000
  C   C440      1.0  0.07760  0.90780  0.50000  1.0000
  C   C441      1.0  0.32890  0.60280  0.44470  1.0000
  C   C442      1.0  0.35940  0.59730  0.47970  1.0000
  N   N177      1.0  0.39940  0.59567  0.46650  1.0000
  O   O353      1.0  0.29310  0.60950  0.45520  1.0000
  O   O354      1.0  0.34250  0.59930  0.40860  1.0000
  C   C443      1.0  0.42240  0.59220  0.50000  1.0000
  C   C444      1.0  0.32890  0.60280  0.55530  1.0000
  C   C445      1.0  0.35940  0.59730  0.52030  1.0000
  N   N178      1.0  0.39940  0.59567  0.53350  1.0000
  O   O355      1.0  0.29310  0.60950  0.54480  1.0000
  O   O356      1.0  0.34250  0.59930  0.59140  1.0000
  O   O357      1.0  0.29310  0.10950  0.04480  1.0000
  O   O358      1.0  0.34250  0.09930  0.09140  1.0000
  C   C446      1.0  0.32890  0.10280  0.94470  1.0000
  C   C447      1.0  0.35940  0.09730  0.97970  1.0000
  N   N179      1.0  0.39940  0.09567  0.96650  1.0000
  O   O359      1.0  0.29310  0.10950  0.95520  1.0000
  O   O360      1.0  0.34250  0.09930  0.90860  1.0000
  C   C448      1.0  0.42240  0.09220  0.00000  1.0000
  C   C449      1.0  0.32890  0.10280  0.05530  1.0000
  C   C450      1.0  0.35940  0.09730  0.02030  1.0000
  N   N180      1.0  0.39940  0.09567  0.03350  1.0000
  C   C451      1.0  0.82890  0.60280  0.05530  1.0000
  C   C452      1.0  0.85940  0.59730  0.02030  1.0000
  N   N181      1.0  0.89940  0.59567  0.03350  1.0000
  O   O361      1.0  0.79310  0.60950  0.04480  1.0000
  O   O362      1.0  0.84250  0.59930  0.09140  1.0000
  C   C453      1.0  0.82890  0.60280  0.94470  1.0000
  C   C454      1.0  0.85940  0.59730  0.97970  1.0000
  N   N182      1.0  0.89940  0.59567  0.96650  1.0000
  O   O363      1.0  0.79310  0.60950  0.95520  1.0000
  O   O364      1.0  0.84250  0.59930  0.90860  1.0000
  C   C455      1.0  0.92240  0.59220  0.00000  1.0000
  C   C456      1.0  0.82890  0.10280  0.55530  1.0000
  C   C457      1.0  0.85940  0.09730  0.52030  1.0000
  N   N183      1.0  0.89940  0.09567  0.53350  1.0000
  O   O365      1.0  0.79310  0.10950  0.54480  1.0000
  O   O366      1.0  0.84250  0.09930  0.59140  1.0000
  C   C458      1.0  0.82890  0.10280  0.44470  1.0000
  C   C459      1.0  0.85940  0.09730  0.47970  1.0000
  N   N184      1.0  0.89940  0.09567  0.46650  1.0000
  O   O367      1.0  0.79310  0.10950  0.45520  1.0000
  O   O368      1.0  0.84250  0.09930  0.40860  1.0000
  C   C460      1.0  0.92240  0.09220  0.50000  1.0000
  C   C461      1.0  0.32890  0.39720  0.44470  1.0000
  C   C462      1.0  0.35940  0.40270  0.47970  1.0000
  N   N185      1.0  0.39940  0.40433  0.46650  1.0000
  O   O369      1.0  0.29310  0.39050  0.45520  1.0000
  O   O370      1.0  0.34250  0.40070  0.40860  1.0000
  C   C463      1.0  0.35940  0.40270  0.52030  1.0000
  C   C464      1.0  0.32890  0.39720  0.55530  1.0000
  N   N186      1.0  0.39940  0.40433  0.53350  1.0000
  O   O371      1.0  0.29310  0.39050  0.54480  1.0000
  O   O372      1.0  0.34250  0.40070  0.59140  1.0000
  C   C465      1.0  0.42240  0.40780  0.50000  1.0000
  N   N187      1.0  0.39940  0.90433  0.03350  1.0000
  C   C466      1.0  0.32890  0.89720  0.94470  1.0000
  C   C467      1.0  0.35940  0.90270  0.97970  1.0000
  N   N188      1.0  0.39940  0.90433  0.96650  1.0000
  O   O373      1.0  0.29310  0.89050  0.95520  1.0000
  O   O374      1.0  0.34250  0.90070  0.90860  1.0000
  C   C468      1.0  0.35940  0.90270  0.02030  1.0000
  C   C469      1.0  0.32890  0.89720  0.05530  1.0000
  O   O375      1.0  0.29310  0.89050  0.04480  1.0000
  O   O376      1.0  0.34250  0.90070  0.09140  1.0000
  C   C470      1.0  0.42240  0.90780  0.00000  1.0000
  O   O377      1.0  0.84250  0.40070  0.09140  1.0000
  C   C471      1.0  0.82890  0.39720  0.05530  1.0000
  C   C472      1.0  0.82890  0.39720  0.94470  1.0000
  C   C473      1.0  0.85940  0.40270  0.97970  1.0000
  N   N189      1.0  0.89940  0.40433  0.96650  1.0000
  O   O378      1.0  0.79310  0.39050  0.95520  1.0000
  O   O379      1.0  0.84250  0.40070  0.90860  1.0000
  C   C474      1.0  0.85940  0.40270  0.02030  1.0000
  N   N190      1.0  0.89940  0.40433  0.03350  1.0000
  O   O380      1.0  0.79310  0.39050  0.04480  1.0000
  C   C475      1.0  0.92240  0.40780  0.00000  1.0000
  C   C476      1.0  0.85940  0.90270  0.52030  1.0000
  N   N191      1.0  0.89940  0.90433  0.53350  1.0000
  O   O381      1.0  0.79310  0.89050  0.54480  1.0000
  O   O382      1.0  0.84250  0.90070  0.59140  1.0000
  C   C477      1.0  0.82890  0.89720  0.55530  1.0000
  C   C478      1.0  0.92240  0.90780  0.50000  1.0000
  C   C479      1.0  0.82890  0.89720  0.44470  1.0000
  C   C480      1.0  0.85940  0.90270  0.47970  1.0000
  N   N192      1.0  0.89940  0.90433  0.46650  1.0000
  O   O383      1.0  0.79310  0.89050  0.45520  1.0000
  O   O384      1.0  0.84250  0.90070  0.40860  1.0000
  Cr  Cr1       1.0  0.09591  0.09591  0.09591  1.0000
  Cr  Cr2       1.0  0.09591  0.59591  0.59591  1.0000
  Cr  Cr3       1.0  0.59591  0.09591  0.59591  1.0000
  Cr  Cr4       1.0  0.59591  0.59591  0.09591  1.0000
  Cr  Cr5       1.0  0.90409  0.90409  0.09591  1.0000
  Cr  Cr6       1.0  0.90409  0.40409  0.59591  1.0000
  Cr  Cr7       1.0  0.40409  0.90409  0.59591  1.0000
  Cr  Cr8       1.0  0.40409  0.40409  0.09591  1.0000
  Cr  Cr9       1.0  0.90409  0.09591  0.90409  1.0000
  Cr  Cr10      1.0  0.90409  0.59591  0.40409  1.0000
  Cr  Cr11      1.0  0.40409  0.09591  0.40409  1.0000
  Cr  Cr12      1.0  0.40409  0.59591  0.90409  1.0000
  Cr  Cr13      1.0  0.09591  0.90409  0.90409  1.0000
  Cr  Cr14      1.0  0.09591  0.40409  0.40409  1.0000
  Cr  Cr15      1.0  0.59591  0.90409  0.40409  1.0000
  Cr  Cr16      1.0  0.59591  0.40409  0.90409  1.0000
  Cr  Cr17      1.0  0.59591  0.59591  0.40409  1.0000
  Cr  Cr18      1.0  0.59591  0.09591  0.90409  1.0000
  Cr  Cr19      1.0  0.09591  0.59591  0.90409  1.0000
  Cr  Cr20      1.0  0.09591  0.09591  0.40409  1.0000
  Cr  Cr21      1.0  0.40409  0.40409  0.40409  1.0000
  Cr  Cr22      1.0  0.40409  0.90409  0.90409  1.0000
  Cr  Cr23      1.0  0.90409  0.40409  0.90409  1.0000
  Cr  Cr24      1.0  0.90409  0.90409  0.40409  1.0000
  Cr  Cr25      1.0  0.59591  0.40409  0.59591  1.0000
  Cr  Cr26      1.0  0.59591  0.90409  0.09591  1.0000
  Cr  Cr27      1.0  0.09591  0.40409  0.09591  1.0000
  Cr  Cr28      1.0  0.09591  0.90409  0.59591  1.0000
  Cr  Cr29      1.0  0.40409  0.59591  0.59591  1.0000
  Cr  Cr30      1.0  0.40409  0.09591  0.09591  1.0000
  Cr  Cr31      1.0  0.90409  0.59591  0.09591  1.0000
  Cr  Cr32      1.0  0.90409  0.09591  0.59591  1.0000
  Cr  Cr33      1.0  0.90409  0.90409  0.90409  1.0000
  Cr  Cr34      1.0  0.90409  0.40409  0.40409  1.0000
  Cr  Cr35      1.0  0.40409  0.90409  0.40409  1.0000
  Cr  Cr36      1.0  0.40409  0.40409  0.90409  1.0000
  Cr  Cr37      1.0  0.09591  0.09591  0.90409  1.0000
  Cr  Cr38      1.0  0.09591  0.59591  0.40409  1.0000
  Cr  Cr39      1.0  0.59591  0.09591  0.40409  1.0000
  Cr  Cr40      1.0  0.59591  0.59591  0.90409  1.0000
  Cr  Cr41      1.0  0.09591  0.90409  0.09591  1.0000
  Cr  Cr42      1.0  0.09591  0.40409  0.59591  1.0000
  Cr  Cr43      1.0  0.59591  0.90409  0.59591  1.0000
  Cr  Cr44      1.0  0.59591  0.40409  0.09591  1.0000
  Cr  Cr45      1.0  0.90409  0.09591  0.09591  1.0000
  Cr  Cr46      1.0  0.90409  0.59591  0.59591  1.0000
  Cr  Cr47      1.0  0.40409  0.09591  0.59591  1.0000
  Cr  Cr48      1.0  0.40409  0.59591  0.09591  1.0000
  Cr  Cr49      1.0  0.40409  0.40409  0.59591  1.0000
  Cr  Cr50      1.0  0.40409  0.90409  0.09591  1.0000
  Cr  Cr51      1.0  0.90409  0.40409  0.09591  1.0000
  Cr  Cr52      1.0  0.90409  0.90409  0.59591  1.0000
  Cr  Cr53      1.0  0.59591  0.59591  0.59591  1.0000
  Cr  Cr54      1.0  0.59591  0.09591  0.09591  1.0000
  Cr  Cr55      1.0  0.09591  0.59591  0.09591  1.0000
  Cr  Cr56      1.0  0.09591  0.09591  0.59591  1.0000
  Cr  Cr57      1.0  0.40409  0.59591  0.40409  1.0000
  Cr  Cr58      1.0  0.40409  0.09591  0.90409  1.0000
  Cr  Cr59      1.0  0.90409  0.59591  0.90409  1.0000
  Cr  Cr60      1.0  0.90409  0.09591  0.40409  1.0000
  Cr  Cr61      1.0  0.59591  0.40409  0.40409  1.0000
  Cr  Cr62      1.0  0.59591  0.90409  0.90409  1.0000
  Cr  Cr63      1.0  0.09591  0.40409  0.90409  1.0000
  Cr  Cr64      1.0  0.09591  0.90409  0.40409  1.0000
