data_image0
_chemical_formula_structural       OC3SC3OCO3H3OC3SC3HCO3H2OH6OC3SC3OCO3H2OC3SC3OCO3H2OC3SC3OCO3H2OC3SC3OCO3H6OC3SC3OCO3H4OC3SC3OCO3H4OC3SC3OCO3H2OC3SC3OCO3H6OC3SC3OCO3H4OC3SC3OCO3H6OC3SC3OCO3H4OC3SC3OCO3H2O3H2OC3SC3OC4SC3OCO3H2OH7OC3SC3OCO3H2OC3SC3OCO3H3C3SC3OCO3H6OC3SC3OCO3H2OH4OC3SC3OCO3H2OC3SC3OCO3H2CO3H5OC3SC3OCO3HSHOC3HC3O4H2OH4OHOC2OC3SC3HCO2CSC3OCOC3SC3OCO3H4OC3SC3OCO3H4OC3SC3OCO3H4OC3SC3OCO3H4C2SC3OCO3H6OC3SC3OCO3H2OCH2OC3SC3OCO3H2OC3SC3OCO3H4OH2O4HC3SC3HC4SC3OCO3H2OH4OC3SC3OCO3H2OC3SC3HCO3H3OH2O3H2OC3SC3OC4SC3OCO3H2OH2OCOC3SC3OCO3SC2HC3HOHO2H3OCH2OC3SC3OCO3H2OC3SC3OCO3H6O2H2OH4OCHC2OC3SC3OCO2CSHC2OCOCSC3OCO3H6OC3SC3OCO3H2OC2Zr24O32
_chemical_formula_sum              "O272 C336 S48 H192 Zr24"
_cell_length_a       26.8988
_cell_length_b       26.8988
_cell_length_c       26.8988
_cell_angle_alpha    90
_cell_angle_beta     90
_cell_angle_gamma    90

_space_group_name_H-M_alt    "P 1"
_space_group_IT_number       1

loop_
  _space_group_symop_operation_xyz
  'x, y, z'

loop_
  _atom_site_type_symbol
  _atom_site_label
  _atom_site_symmetry_multiplicity
  _atom_site_fract_x
  _atom_site_fract_y
  _atom_site_fract_z
  _atom_site_occupancy
  O   O1        1.0  0.13386  0.00144  0.06753  1.0000
  C   C1        1.0  0.11151  0.98197  0.11213  1.0000
  C   C2        1.0  0.15198  0.98027  0.15424  1.0000
  C   C3        1.0  0.22902  0.97850  0.23060  1.0000
  S   S1        1.0  0.17703  0.04657  0.29076  1.0000
  C   C4        1.0  0.19505  0.95059  0.14949  1.0000
  C   C5        1.0  0.14819  0.00872  0.19849  1.0000
  C   C6        1.0  0.23264  0.94977  0.18670  1.0000
  O   O2        1.0  0.06954  0.01044  0.12879  1.0000
  C   C7        1.0  0.18563  0.00808  0.23595  1.0000
  O   O3        1.0  0.16606  0.01810  0.34737  1.0000
  O   O4        1.0  0.13452  0.08490  0.28465  1.0000
  O   O5        1.0  0.22207  0.08111  0.30016  1.0000
  H   H1        1.0  0.19988  0.92803  0.11649  1.0000
  H   H2        1.0  0.11603  0.03218  0.20412  1.0000
  H   H3        1.0  0.23498  0.92657  0.31902  1.0000
  O   O6        1.0  0.36614  0.00144  0.43247  1.0000
  C   C8        1.0  0.38849  0.98197  0.38787  1.0000
  C   C9        1.0  0.34802  0.98027  0.34576  1.0000
  C   C10       1.0  0.27098  0.97850  0.26940  1.0000
  S   S2        1.0  0.32297  0.04657  0.20924  1.0000
  C   C11       1.0  0.30495  0.95059  0.35051  1.0000
  C   C12       1.0  0.35181  0.00872  0.30151  1.0000
  C   C13       1.0  0.26736  0.94977  0.31330  1.0000
  H   H4        1.0  0.33990  0.98274  0.16093  1.0000
  C   C14       1.0  0.31437  0.00808  0.26405  1.0000
  O   O7        1.0  0.33394  0.01810  0.15263  1.0000
  O   O8        1.0  0.36548  0.08490  0.21535  1.0000
  O   O9        1.0  0.27793  0.08111  0.19984  1.0000
  H   H5        1.0  0.30012  0.92803  0.38351  1.0000
  H   H6        1.0  0.38397  0.03218  0.29588  1.0000
  O   O10       1.0  0.43046  0.01044  0.37121  1.0000
  H   H7        1.0  0.26502  0.92657  0.18098  1.0000
  H   H8        1.0  0.16010  0.98274  0.33907  1.0000
  H   H9        1.0  0.31902  0.73498  0.42657  1.0000
  H   H10       1.0  0.16093  0.83990  0.48274  1.0000
  H   H11       1.0  0.18098  0.76502  0.42657  1.0000
  H   H12       1.0  0.33907  0.66010  0.48274  1.0000
  O   O11       1.0  0.06753  0.63386  0.50144  1.0000
  C   C15       1.0  0.11213  0.61151  0.48197  1.0000
  C   C16       1.0  0.15424  0.65198  0.48027  1.0000
  C   C17       1.0  0.23060  0.72902  0.47850  1.0000
  S   S3        1.0  0.29076  0.67703  0.54657  1.0000
  C   C18       1.0  0.14949  0.69505  0.45059  1.0000
  C   C19       1.0  0.19849  0.64819  0.50872  1.0000
  C   C20       1.0  0.18670  0.73264  0.44977  1.0000
  O   O12       1.0  0.12879  0.56954  0.51044  1.0000
  C   C21       1.0  0.23595  0.68563  0.50808  1.0000
  O   O13       1.0  0.34737  0.66606  0.51810  1.0000
  O   O14       1.0  0.28465  0.63452  0.58490  1.0000
  O   O15       1.0  0.30016  0.72207  0.58111  1.0000
  H   H13       1.0  0.11649  0.69988  0.42803  1.0000
  H   H14       1.0  0.20412  0.61603  0.53218  1.0000
  O   O16       1.0  0.43247  0.86614  0.50144  1.0000
  C   C22       1.0  0.38787  0.88849  0.48197  1.0000
  C   C23       1.0  0.34576  0.84802  0.48027  1.0000
  C   C24       1.0  0.26940  0.77098  0.47850  1.0000
  S   S4        1.0  0.20924  0.82297  0.54657  1.0000
  C   C25       1.0  0.35051  0.80495  0.45059  1.0000
  C   C26       1.0  0.30151  0.85181  0.50872  1.0000
  C   C27       1.0  0.31330  0.76736  0.44977  1.0000
  O   O17       1.0  0.37121  0.93046  0.51044  1.0000
  C   C28       1.0  0.26405  0.81437  0.50808  1.0000
  O   O18       1.0  0.15263  0.83394  0.51810  1.0000
  O   O19       1.0  0.21535  0.86548  0.58490  1.0000
  O   O20       1.0  0.19984  0.77793  0.58111  1.0000
  H   H15       1.0  0.38351  0.80012  0.42803  1.0000
  H   H16       1.0  0.29588  0.88397  0.53218  1.0000
  O   O21       1.0  0.13386  0.50144  0.56753  1.0000
  C   C29       1.0  0.11151  0.48197  0.61213  1.0000
  C   C30       1.0  0.15198  0.48027  0.65424  1.0000
  C   C31       1.0  0.22902  0.47850  0.73060  1.0000
  S   S5        1.0  0.17703  0.54657  0.79076  1.0000
  C   C32       1.0  0.19505  0.45059  0.64949  1.0000
  C   C33       1.0  0.14819  0.50872  0.69849  1.0000
  C   C34       1.0  0.23264  0.44977  0.68670  1.0000
  O   O22       1.0  0.06954  0.51044  0.62879  1.0000
  C   C35       1.0  0.18563  0.50808  0.73595  1.0000
  O   O23       1.0  0.16606  0.51810  0.84737  1.0000
  O   O24       1.0  0.13452  0.58490  0.78465  1.0000
  O   O25       1.0  0.22207  0.58111  0.80016  1.0000
  H   H17       1.0  0.19988  0.42803  0.61649  1.0000
  H   H18       1.0  0.11603  0.53218  0.70412  1.0000
  O   O26       1.0  0.36614  0.50144  0.93247  1.0000
  C   C36       1.0  0.38849  0.48197  0.88787  1.0000
  C   C37       1.0  0.34802  0.48027  0.84576  1.0000
  C   C38       1.0  0.27098  0.47850  0.76940  1.0000
  S   S6        1.0  0.32297  0.54657  0.70924  1.0000
  C   C39       1.0  0.30495  0.45059  0.85051  1.0000
  C   C40       1.0  0.35181  0.50872  0.80151  1.0000
  C   C41       1.0  0.26736  0.44977  0.81330  1.0000
  O   O27       1.0  0.43046  0.51044  0.87121  1.0000
  C   C42       1.0  0.31437  0.50808  0.76405  1.0000
  O   O28       1.0  0.33394  0.51810  0.65263  1.0000
  O   O29       1.0  0.36548  0.58490  0.71535  1.0000
  O   O30       1.0  0.27793  0.58111  0.69984  1.0000
  H   H19       1.0  0.30012  0.42803  0.88351  1.0000
  H   H20       1.0  0.38397  0.53218  0.79588  1.0000
  H   H21       1.0  0.26502  0.42657  0.68098  1.0000
  H   H22       1.0  0.16010  0.48274  0.83907  1.0000
  H   H23       1.0  0.23498  0.42657  0.81902  1.0000
  H   H24       1.0  0.33990  0.48274  0.66093  1.0000
  O   O31       1.0  0.06753  0.13386  0.00144  1.0000
  C   C43       1.0  0.11213  0.11151  0.98197  1.0000
  C   C44       1.0  0.15424  0.15198  0.98027  1.0000
  C   C45       1.0  0.23060  0.22902  0.97850  1.0000
  S   S7        1.0  0.29076  0.17703  0.04657  1.0000
  C   C46       1.0  0.14949  0.19505  0.95059  1.0000
  C   C47       1.0  0.19849  0.14819  0.00872  1.0000
  C   C48       1.0  0.18670  0.23264  0.94977  1.0000
  O   O32       1.0  0.12879  0.06954  0.01044  1.0000
  C   C49       1.0  0.23595  0.18563  0.00808  1.0000
  O   O33       1.0  0.34737  0.16606  0.01810  1.0000
  O   O34       1.0  0.28465  0.13452  0.08490  1.0000
  O   O35       1.0  0.30016  0.22207  0.08111  1.0000
  H   H25       1.0  0.11649  0.19988  0.92803  1.0000
  H   H26       1.0  0.20412  0.11603  0.03218  1.0000
  H   H27       1.0  0.18098  0.26502  0.92657  1.0000
  H   H28       1.0  0.33907  0.16010  0.98274  1.0000
  O   O36       1.0  0.43247  0.36614  0.00144  1.0000
  C   C50       1.0  0.38787  0.38849  0.98197  1.0000
  C   C51       1.0  0.34576  0.34802  0.98027  1.0000
  C   C52       1.0  0.26940  0.27098  0.97850  1.0000
  S   S8        1.0  0.20924  0.32297  0.04657  1.0000
  C   C53       1.0  0.35051  0.30495  0.95059  1.0000
  C   C54       1.0  0.30151  0.35181  0.00872  1.0000
  C   C55       1.0  0.31330  0.26736  0.94977  1.0000
  O   O37       1.0  0.37121  0.43046  0.01044  1.0000
  C   C56       1.0  0.26405  0.31437  0.00808  1.0000
  O   O38       1.0  0.15263  0.33394  0.01810  1.0000
  O   O39       1.0  0.21535  0.36548  0.08490  1.0000
  O   O40       1.0  0.19984  0.27793  0.08111  1.0000
  H   H29       1.0  0.38351  0.30012  0.92803  1.0000
  H   H30       1.0  0.29588  0.38397  0.03218  1.0000
  H   H31       1.0  0.31902  0.23498  0.92657  1.0000
  H   H32       1.0  0.16093  0.33990  0.98274  1.0000
  O   O41       1.0  0.86614  0.00144  0.93247  1.0000
  C   C57       1.0  0.88849  0.98197  0.88787  1.0000
  C   C58       1.0  0.84802  0.98027  0.84576  1.0000
  C   C59       1.0  0.77098  0.97850  0.76940  1.0000
  S   S9        1.0  0.82297  0.04657  0.70924  1.0000
  C   C60       1.0  0.80495  0.95059  0.85051  1.0000
  C   C61       1.0  0.85181  0.00872  0.80151  1.0000
  C   C62       1.0  0.76736  0.94977  0.81330  1.0000
  O   O42       1.0  0.93046  0.01044  0.87121  1.0000
  C   C63       1.0  0.81437  0.00808  0.76405  1.0000
  O   O43       1.0  0.83394  0.01810  0.65263  1.0000
  O   O44       1.0  0.86548  0.08490  0.71535  1.0000
  O   O45       1.0  0.77793  0.08111  0.69984  1.0000
  H   H33       1.0  0.80012  0.92803  0.88351  1.0000
  H   H34       1.0  0.88397  0.03218  0.79588  1.0000
  O   O46       1.0  0.63386  0.00144  0.56753  1.0000
  C   C64       1.0  0.61151  0.98197  0.61213  1.0000
  C   C65       1.0  0.65198  0.98027  0.65424  1.0000
  C   C66       1.0  0.72902  0.97850  0.73060  1.0000
  S   S10       1.0  0.67703  0.04657  0.79076  1.0000
  C   C67       1.0  0.69505  0.95059  0.64949  1.0000
  C   C68       1.0  0.64819  0.00872  0.69849  1.0000
  C   C69       1.0  0.73264  0.94977  0.68670  1.0000
  O   O47       1.0  0.56954  0.01044  0.62879  1.0000
  C   C70       1.0  0.68563  0.00808  0.73595  1.0000
  O   O48       1.0  0.66606  0.01810  0.84737  1.0000
  O   O49       1.0  0.63452  0.08490  0.78465  1.0000
  O   O50       1.0  0.72207  0.08111  0.80016  1.0000
  H   H35       1.0  0.69988  0.92803  0.61649  1.0000
  H   H36       1.0  0.61603  0.03218  0.70412  1.0000
  H   H37       1.0  0.76502  0.92657  0.68098  1.0000
  H   H38       1.0  0.66010  0.98274  0.83907  1.0000
  H   H39       1.0  0.73498  0.92657  0.81902  1.0000
  H   H40       1.0  0.83990  0.98274  0.66093  1.0000
  O   O51       1.0  0.93247  0.86614  0.00144  1.0000
  C   C71       1.0  0.88787  0.88849  0.98197  1.0000
  C   C72       1.0  0.84576  0.84802  0.98027  1.0000
  C   C73       1.0  0.76940  0.77098  0.97850  1.0000
  S   S11       1.0  0.70924  0.82297  0.04657  1.0000
  C   C74       1.0  0.85051  0.80495  0.95059  1.0000
  C   C75       1.0  0.80151  0.85181  0.00872  1.0000
  C   C76       1.0  0.81330  0.76736  0.94977  1.0000
  O   O52       1.0  0.87121  0.93046  0.01044  1.0000
  C   C77       1.0  0.76405  0.81437  0.00808  1.0000
  O   O53       1.0  0.65263  0.83394  0.01810  1.0000
  O   O54       1.0  0.71535  0.86548  0.08490  1.0000
  O   O55       1.0  0.69984  0.77793  0.08111  1.0000
  H   H41       1.0  0.88351  0.80012  0.92803  1.0000
  H   H42       1.0  0.79588  0.88397  0.03218  1.0000
  H   H43       1.0  0.68098  0.76502  0.92657  1.0000
  H   H44       1.0  0.83907  0.66010  0.98274  1.0000
  O   O56       1.0  0.56753  0.63386  0.00144  1.0000
  C   C78       1.0  0.61213  0.61151  0.98197  1.0000
  C   C79       1.0  0.65424  0.65198  0.98027  1.0000
  C   C80       1.0  0.73060  0.72902  0.97850  1.0000
  S   S12       1.0  0.79076  0.67703  0.04657  1.0000
  C   C81       1.0  0.64949  0.69505  0.95059  1.0000
  C   C82       1.0  0.69849  0.64819  0.00872  1.0000
  C   C83       1.0  0.68670  0.73264  0.94977  1.0000
  O   O57       1.0  0.62879  0.56954  0.01044  1.0000
  C   C84       1.0  0.73595  0.68563  0.00808  1.0000
  O   O58       1.0  0.84737  0.66606  0.01810  1.0000
  O   O59       1.0  0.78465  0.63452  0.08490  1.0000
  O   O60       1.0  0.80016  0.72207  0.08111  1.0000
  H   H45       1.0  0.61649  0.69988  0.92803  1.0000
  H   H46       1.0  0.70412  0.61603  0.03218  1.0000
  H   H47       1.0  0.81902  0.73498  0.92657  1.0000
  H   H48       1.0  0.66093  0.83990  0.98274  1.0000
  H   H49       1.0  0.73498  0.42657  0.31902  1.0000
  H   H50       1.0  0.83990  0.48274  0.16093  1.0000
  O   O61       1.0  0.86614  0.50144  0.43247  1.0000
  C   C85       1.0  0.88849  0.48197  0.38787  1.0000
  C   C86       1.0  0.84802  0.48027  0.34576  1.0000
  C   C87       1.0  0.77098  0.47850  0.26940  1.0000
  S   S13       1.0  0.82297  0.54657  0.20924  1.0000
  C   C88       1.0  0.80495  0.45059  0.35051  1.0000
  C   C89       1.0  0.85181  0.50872  0.30151  1.0000
  C   C90       1.0  0.76736  0.44977  0.31330  1.0000
  O   O62       1.0  0.93046  0.51044  0.37121  1.0000
  C   C91       1.0  0.81437  0.50808  0.26405  1.0000
  O   O63       1.0  0.83394  0.51810  0.15263  1.0000
  O   O64       1.0  0.86548  0.58490  0.21535  1.0000
  O   O65       1.0  0.77793  0.58111  0.19984  1.0000
  H   H51       1.0  0.80012  0.42803  0.38351  1.0000
  H   H52       1.0  0.88397  0.53218  0.29588  1.0000
  H   H53       1.0  0.76502  0.42657  0.18098  1.0000
  H   H54       1.0  0.66010  0.48274  0.33907  1.0000
  O   O66       1.0  0.63386  0.50144  0.06753  1.0000
  C   C92       1.0  0.61151  0.48197  0.11213  1.0000
  C   C93       1.0  0.65198  0.48027  0.15424  1.0000
  C   C94       1.0  0.72902  0.47850  0.23060  1.0000
  S   S14       1.0  0.67703  0.54657  0.29076  1.0000
  C   C95       1.0  0.69505  0.45059  0.14949  1.0000
  C   C96       1.0  0.64819  0.50872  0.19849  1.0000
  C   C97       1.0  0.73264  0.44977  0.18670  1.0000
  O   O67       1.0  0.56954  0.51044  0.12879  1.0000
  C   C98       1.0  0.68563  0.50808  0.23595  1.0000
  O   O68       1.0  0.66606  0.51810  0.34737  1.0000
  O   O69       1.0  0.63452  0.58490  0.28465  1.0000
  O   O70       1.0  0.72207  0.58111  0.30016  1.0000
  H   H55       1.0  0.69988  0.42803  0.11649  1.0000
  H   H56       1.0  0.61603  0.53218  0.20412  1.0000
  O   O71       1.0  0.65263  0.33394  0.51810  1.0000
  O   O72       1.0  0.71535  0.36548  0.58490  1.0000
  O   O73       1.0  0.69984  0.27793  0.58111  1.0000
  H   H57       1.0  0.88351  0.30012  0.42803  1.0000
  H   H58       1.0  0.79588  0.38397  0.53218  1.0000
  O   O74       1.0  0.93247  0.36614  0.50144  1.0000
  C   C99       1.0  0.88787  0.38849  0.48197  1.0000
  C   C100      1.0  0.84576  0.34802  0.48027  1.0000
  C   C101      1.0  0.76940  0.27098  0.47850  1.0000
  S   S15       1.0  0.70924  0.32297  0.54657  1.0000
  C   C102      1.0  0.85051  0.30495  0.45059  1.0000
  C   C103      1.0  0.80151  0.35181  0.50872  1.0000
  C   C104      1.0  0.81330  0.26736  0.44977  1.0000
  O   O75       1.0  0.87121  0.43046  0.51044  1.0000
  C   C105      1.0  0.76405  0.31437  0.50808  1.0000
  C   C106      1.0  0.61213  0.11151  0.48197  1.0000
  C   C107      1.0  0.65424  0.15198  0.48027  1.0000
  C   C108      1.0  0.73060  0.22902  0.47850  1.0000
  S   S16       1.0  0.79076  0.17703  0.54657  1.0000
  C   C109      1.0  0.64949  0.19505  0.45059  1.0000
  C   C110      1.0  0.69849  0.14819  0.50872  1.0000
  C   C111      1.0  0.68670  0.23264  0.44977  1.0000
  O   O76       1.0  0.56753  0.13386  0.50144  1.0000
  C   C112      1.0  0.73595  0.18563  0.50808  1.0000
  O   O77       1.0  0.84737  0.16606  0.51810  1.0000
  O   O78       1.0  0.78465  0.13452  0.58490  1.0000
  O   O79       1.0  0.80016  0.22207  0.58111  1.0000
  H   H59       1.0  0.61649  0.19988  0.42803  1.0000
  H   H60       1.0  0.70412  0.11603  0.53218  1.0000
  O   O80       1.0  0.62879  0.06954  0.51044  1.0000
  H   H61       1.0  0.68098  0.26502  0.42657  1.0000
  H   H62       1.0  0.83907  0.16010  0.48274  1.0000
  H   H63       1.0  0.81902  0.23498  0.42657  1.0000
  H   H64       1.0  0.66093  0.33990  0.48274  1.0000
  H   H65       1.0  0.66010  0.01726  0.16093  1.0000
  H   H66       1.0  0.73498  0.07343  0.18098  1.0000
  H   H67       1.0  0.83990  0.01726  0.33907  1.0000
  O   O81       1.0  0.86614  0.99856  0.06753  1.0000
  C   C113      1.0  0.88849  0.01803  0.11213  1.0000
  C   C114      1.0  0.84802  0.01973  0.15424  1.0000
  C   C115      1.0  0.77098  0.02150  0.23060  1.0000
  S   S17       1.0  0.82297  0.95343  0.29076  1.0000
  C   C116      1.0  0.80495  0.04941  0.14949  1.0000
  C   C117      1.0  0.85181  0.99128  0.19849  1.0000
  C   C118      1.0  0.76736  0.05023  0.18670  1.0000
  O   O82       1.0  0.93046  0.98956  0.12879  1.0000
  C   C119      1.0  0.81437  0.99192  0.23595  1.0000
  O   O83       1.0  0.83394  0.98190  0.34737  1.0000
  O   O84       1.0  0.86548  0.91510  0.28465  1.0000
  O   O85       1.0  0.77793  0.91889  0.30016  1.0000
  H   H68       1.0  0.80012  0.07197  0.11649  1.0000
  H   H69       1.0  0.88397  0.96782  0.20412  1.0000
  O   O86       1.0  0.63386  0.99856  0.43247  1.0000
  C   C120      1.0  0.61151  0.01803  0.38787  1.0000
  C   C121      1.0  0.65198  0.01973  0.34576  1.0000
  C   C122      1.0  0.72902  0.02150  0.26940  1.0000
  S   S18       1.0  0.67703  0.95343  0.20924  1.0000
  C   C123      1.0  0.69505  0.04941  0.35051  1.0000
  C   C124      1.0  0.64819  0.99128  0.30151  1.0000
  C   C125      1.0  0.73264  0.05023  0.31330  1.0000
  O   O87       1.0  0.56954  0.98956  0.37121  1.0000
  C   C126      1.0  0.68563  0.99192  0.26405  1.0000
  O   O88       1.0  0.66606  0.98190  0.15263  1.0000
  O   O89       1.0  0.63452  0.91510  0.21535  1.0000
  O   O90       1.0  0.72207  0.91889  0.19984  1.0000
  H   H70       1.0  0.69988  0.07197  0.38351  1.0000
  H   H71       1.0  0.61603  0.96782  0.29588  1.0000
  H   H72       1.0  0.76502  0.07343  0.31902  1.0000
  C   C127      1.0  0.61151  0.51803  0.88787  1.0000
  C   C128      1.0  0.65198  0.51973  0.84576  1.0000
  C   C129      1.0  0.72902  0.52150  0.76940  1.0000
  S   S19       1.0  0.67703  0.45343  0.70924  1.0000
  C   C130      1.0  0.69505  0.54941  0.85051  1.0000
  C   C131      1.0  0.64819  0.49128  0.80151  1.0000
  C   C132      1.0  0.73264  0.55023  0.81330  1.0000
  O   O91       1.0  0.56954  0.48956  0.87121  1.0000
  C   C133      1.0  0.68563  0.49192  0.76405  1.0000
  O   O92       1.0  0.66606  0.48190  0.65263  1.0000
  O   O93       1.0  0.63452  0.41510  0.71535  1.0000
  O   O94       1.0  0.72207  0.41889  0.69984  1.0000
  H   H73       1.0  0.69988  0.57197  0.88351  1.0000
  H   H74       1.0  0.61603  0.46782  0.79588  1.0000
  H   H75       1.0  0.73498  0.57343  0.68098  1.0000
  H   H76       1.0  0.83990  0.51726  0.83907  1.0000
  H   H77       1.0  0.76502  0.57343  0.81902  1.0000
  H   H78       1.0  0.66010  0.51726  0.66093  1.0000
  O   O95       1.0  0.86614  0.49856  0.56753  1.0000
  C   C134      1.0  0.88849  0.51803  0.61213  1.0000
  C   C135      1.0  0.84802  0.51973  0.65424  1.0000
  C   C136      1.0  0.77098  0.52150  0.73060  1.0000
  S   S20       1.0  0.82297  0.45343  0.79076  1.0000
  C   C137      1.0  0.80495  0.54941  0.64949  1.0000
  C   C138      1.0  0.85181  0.49128  0.69849  1.0000
  C   C139      1.0  0.76736  0.55023  0.68670  1.0000
  O   O96       1.0  0.93046  0.48956  0.62879  1.0000
  C   C140      1.0  0.81437  0.49192  0.73595  1.0000
  O   O97       1.0  0.83394  0.48190  0.84737  1.0000
  O   O98       1.0  0.86548  0.41510  0.78465  1.0000
  O   O99       1.0  0.77793  0.41889  0.80016  1.0000
  H   H79       1.0  0.80012  0.57197  0.61649  1.0000
  H   H80       1.0  0.88397  0.46782  0.70412  1.0000
  O   O100      1.0  0.63386  0.49856  0.93247  1.0000
  H   H81       1.0  0.23498  0.07343  0.68098  1.0000
  H   H82       1.0  0.33990  0.01726  0.83907  1.0000
  H   H83       1.0  0.26502  0.07343  0.81902  1.0000
  H   H84       1.0  0.16010  0.01726  0.66093  1.0000
  O   O101      1.0  0.13386  0.99856  0.93247  1.0000
  C   C141      1.0  0.11151  0.01803  0.88787  1.0000
  C   C142      1.0  0.15198  0.01973  0.84576  1.0000
  C   C143      1.0  0.22902  0.02150  0.76940  1.0000
  S   S21       1.0  0.17703  0.95343  0.70924  1.0000
  C   C144      1.0  0.19505  0.04941  0.85051  1.0000
  C   C145      1.0  0.14819  0.99128  0.80151  1.0000
  C   C146      1.0  0.23264  0.05023  0.81330  1.0000
  O   O102      1.0  0.06954  0.98956  0.87121  1.0000
  C   C147      1.0  0.18563  0.99192  0.76405  1.0000
  O   O103      1.0  0.16606  0.98190  0.65263  1.0000
  O   O104      1.0  0.13452  0.91510  0.71535  1.0000
  O   O105      1.0  0.22207  0.91889  0.69984  1.0000
  H   H85       1.0  0.19988  0.07197  0.88351  1.0000
  H   H86       1.0  0.11603  0.96782  0.79588  1.0000
  O   O106      1.0  0.36614  0.99856  0.56753  1.0000
  C   C148      1.0  0.38849  0.01803  0.61213  1.0000
  C   C149      1.0  0.34802  0.01973  0.65424  1.0000
  C   C150      1.0  0.27098  0.02150  0.73060  1.0000
  S   S22       1.0  0.32297  0.95343  0.79076  1.0000
  C   C151      1.0  0.30495  0.04941  0.64949  1.0000
  C   C152      1.0  0.35181  0.99128  0.69849  1.0000
  C   C153      1.0  0.26736  0.05023  0.68670  1.0000
  O   O107      1.0  0.43046  0.98956  0.62879  1.0000
  C   C154      1.0  0.31437  0.99192  0.73595  1.0000
  O   O108      1.0  0.33394  0.98190  0.84737  1.0000
  O   O109      1.0  0.36548  0.91510  0.78465  1.0000
  O   O110      1.0  0.27793  0.91889  0.80016  1.0000
  H   H87       1.0  0.30012  0.07197  0.61649  1.0000
  H   H88       1.0  0.38397  0.96782  0.70412  1.0000
  C   C155      1.0  0.31437  0.49192  0.23595  1.0000
  O   O111      1.0  0.33394  0.48190  0.34737  1.0000
  O   O112      1.0  0.36548  0.41510  0.28465  1.0000
  O   O113      1.0  0.27793  0.41889  0.30016  1.0000
  H   H89       1.0  0.30012  0.57197  0.11649  1.0000
  H   H90       1.0  0.38397  0.46782  0.20412  1.0000
  H   H91       1.0  0.33990  0.51726  0.33907  1.0000
  H   H92       1.0  0.26502  0.57343  0.31902  1.0000
  H   H93       1.0  0.16010  0.51726  0.16093  1.0000
  O   O114      1.0  0.13386  0.49856  0.43247  1.0000
  C   C156      1.0  0.11151  0.51803  0.38787  1.0000
  C   C157      1.0  0.15198  0.51973  0.34576  1.0000
  C   C158      1.0  0.22902  0.52150  0.26940  1.0000
  S   S23       1.0  0.17703  0.45343  0.20924  1.0000
  C   C159      1.0  0.19505  0.54941  0.35051  1.0000
  C   C160      1.0  0.14819  0.49128  0.30151  1.0000
  C   C161      1.0  0.23264  0.55023  0.31330  1.0000
  O   O115      1.0  0.06954  0.48956  0.37121  1.0000
  C   C162      1.0  0.18563  0.49192  0.26405  1.0000
  O   O116      1.0  0.16606  0.48190  0.15263  1.0000
  O   O117      1.0  0.13452  0.41510  0.21535  1.0000
  O   O118      1.0  0.22207  0.41889  0.19984  1.0000
  H   H94       1.0  0.19988  0.57197  0.38351  1.0000
  S   S24       1.0  0.32297  0.45343  0.29076  1.0000
  H   H95       1.0  0.11603  0.46782  0.29588  1.0000
  O   O119      1.0  0.36614  0.49856  0.06753  1.0000
  C   C163      1.0  0.38849  0.51803  0.11213  1.0000
  C   C164      1.0  0.34802  0.51973  0.15424  1.0000
  C   C165      1.0  0.27098  0.52150  0.23060  1.0000
  H   H96       1.0  0.23498  0.57343  0.18098  1.0000
  C   C166      1.0  0.30495  0.54941  0.14949  1.0000
  C   C167      1.0  0.35181  0.49128  0.19849  1.0000
  C   C168      1.0  0.26736  0.55023  0.18670  1.0000
  O   O120      1.0  0.43046  0.48956  0.12879  1.0000
  O   O121      1.0  0.84737  0.83394  0.48190  1.0000
  O   O122      1.0  0.78465  0.86548  0.41510  1.0000
  O   O123      1.0  0.80016  0.77793  0.41889  1.0000
  H   H97       1.0  0.61649  0.80012  0.57197  1.0000
  H   H98       1.0  0.70412  0.88397  0.46782  1.0000
  O   O124      1.0  0.62879  0.93046  0.48956  1.0000
  H   H99       1.0  0.68098  0.73498  0.57343  1.0000
  H   H100      1.0  0.83907  0.83990  0.51726  1.0000
  H   H101      1.0  0.81902  0.76502  0.57343  1.0000
  H   H102      1.0  0.66093  0.66010  0.51726  1.0000
  O   O125      1.0  0.93247  0.63386  0.49856  1.0000
  H   H103      1.0  0.79588  0.61603  0.46782  1.0000
  O   O126      1.0  0.56753  0.86614  0.49856  1.0000
  C   C169      1.0  0.61213  0.88849  0.51803  1.0000
  C   C170      1.0  0.65424  0.84802  0.51973  1.0000
  O   O127      1.0  0.69984  0.72207  0.41889  1.0000
  C   C171      1.0  0.88787  0.61151  0.51803  1.0000
  C   C172      1.0  0.84576  0.65198  0.51973  1.0000
  C   C173      1.0  0.76940  0.72902  0.52150  1.0000
  S   S25       1.0  0.70924  0.67703  0.45343  1.0000
  C   C174      1.0  0.85051  0.69505  0.54941  1.0000
  C   C175      1.0  0.80151  0.64819  0.49128  1.0000
  C   C176      1.0  0.81330  0.73264  0.55023  1.0000
  H   H104      1.0  0.88351  0.69988  0.57197  1.0000
  C   C177      1.0  0.76405  0.68563  0.49192  1.0000
  O   O128      1.0  0.65263  0.66606  0.48190  1.0000
  O   O129      1.0  0.71535  0.63452  0.41510  1.0000
  C   C178      1.0  0.73060  0.77098  0.52150  1.0000
  S   S26       1.0  0.79076  0.82297  0.45343  1.0000
  C   C179      1.0  0.64949  0.80495  0.54941  1.0000
  C   C180      1.0  0.69849  0.85181  0.49128  1.0000
  C   C181      1.0  0.68670  0.76736  0.55023  1.0000
  O   O130      1.0  0.87121  0.56954  0.48956  1.0000
  C   C182      1.0  0.73595  0.81437  0.49192  1.0000
  O   O131      1.0  0.56753  0.36614  0.99856  1.0000
  C   C183      1.0  0.61213  0.38849  0.01803  1.0000
  C   C184      1.0  0.65424  0.34802  0.01973  1.0000
  C   C185      1.0  0.73060  0.27098  0.02150  1.0000
  S   S27       1.0  0.79076  0.32297  0.95343  1.0000
  C   C186      1.0  0.64949  0.30495  0.04941  1.0000
  C   C187      1.0  0.69849  0.35181  0.99128  1.0000
  C   C188      1.0  0.68670  0.26736  0.05023  1.0000
  O   O132      1.0  0.62879  0.43046  0.98956  1.0000
  C   C189      1.0  0.73595  0.31437  0.99192  1.0000
  O   O133      1.0  0.84737  0.33394  0.98190  1.0000
  O   O134      1.0  0.78465  0.36548  0.91510  1.0000
  O   O135      1.0  0.80016  0.27793  0.91889  1.0000
  H   H105      1.0  0.61649  0.30012  0.07197  1.0000
  H   H106      1.0  0.70412  0.38397  0.96782  1.0000
  H   H107      1.0  0.81902  0.26502  0.07343  1.0000
  H   H108      1.0  0.66093  0.16010  0.01726  1.0000
  O   O136      1.0  0.93247  0.13386  0.99856  1.0000
  C   C190      1.0  0.88787  0.11151  0.01803  1.0000
  C   C191      1.0  0.84576  0.15198  0.01973  1.0000
  C   C192      1.0  0.76940  0.22902  0.02150  1.0000
  S   S28       1.0  0.70924  0.17703  0.95343  1.0000
  C   C193      1.0  0.85051  0.19505  0.04941  1.0000
  C   C194      1.0  0.80151  0.14819  0.99128  1.0000
  C   C195      1.0  0.81330  0.23264  0.05023  1.0000
  O   O137      1.0  0.87121  0.06954  0.98956  1.0000
  C   C196      1.0  0.76405  0.18563  0.99192  1.0000
  O   O138      1.0  0.65263  0.16606  0.98190  1.0000
  O   O139      1.0  0.71535  0.13452  0.91510  1.0000
  O   O140      1.0  0.69984  0.22207  0.91889  1.0000
  H   H109      1.0  0.88351  0.19988  0.07197  1.0000
  H   H110      1.0  0.79588  0.11603  0.96782  1.0000
  H   H111      1.0  0.68098  0.23498  0.07343  1.0000
  H   H112      1.0  0.83907  0.33990  0.01726  1.0000
  O   O141      1.0  0.43247  0.63386  0.99856  1.0000
  C   C197      1.0  0.38787  0.61151  0.01803  1.0000
  C   C198      1.0  0.34576  0.65198  0.01973  1.0000
  C   C199      1.0  0.26940  0.72902  0.02150  1.0000
  S   S29       1.0  0.20924  0.67703  0.95343  1.0000
  C   C200      1.0  0.35051  0.69505  0.04941  1.0000
  C   C201      1.0  0.30151  0.64819  0.99128  1.0000
  C   C202      1.0  0.31330  0.73264  0.05023  1.0000
  O   O142      1.0  0.37121  0.56954  0.98956  1.0000
  C   C203      1.0  0.26405  0.68563  0.99192  1.0000
  O   O143      1.0  0.15263  0.66606  0.98190  1.0000
  O   O144      1.0  0.21535  0.63452  0.91510  1.0000
  O   O145      1.0  0.19984  0.72207  0.91889  1.0000
  H   H113      1.0  0.38351  0.69988  0.07197  1.0000
  H   H114      1.0  0.29588  0.61603  0.96782  1.0000
  H   H115      1.0  0.31902  0.76502  0.07343  1.0000
  H   H116      1.0  0.16093  0.66010  0.01726  1.0000
  O   O146      1.0  0.06753  0.86614  0.99856  1.0000
  C   C204      1.0  0.11213  0.88849  0.01803  1.0000
  C   C205      1.0  0.15424  0.84802  0.01973  1.0000
  C   C206      1.0  0.23060  0.77098  0.02150  1.0000
  S   S30       1.0  0.29076  0.82297  0.95343  1.0000
  C   C207      1.0  0.14949  0.80495  0.04941  1.0000
  C   C208      1.0  0.19849  0.85181  0.99128  1.0000
  C   C209      1.0  0.18670  0.76736  0.05023  1.0000
  O   O147      1.0  0.12879  0.93046  0.98956  1.0000
  C   C210      1.0  0.23595  0.81437  0.99192  1.0000
  O   O148      1.0  0.34737  0.83394  0.98190  1.0000
  O   O149      1.0  0.28465  0.86548  0.91510  1.0000
  O   O150      1.0  0.30016  0.77793  0.91889  1.0000
  H   H117      1.0  0.11649  0.80012  0.07197  1.0000
  H   H118      1.0  0.20412  0.88397  0.96782  1.0000
  H   H119      1.0  0.18098  0.73498  0.07343  1.0000
  H   H120      1.0  0.33907  0.83990  0.01726  1.0000
  C   C211      1.0  0.34576  0.15198  0.51973  1.0000
  C   C212      1.0  0.26940  0.22902  0.52150  1.0000
  S   S31       1.0  0.20924  0.17703  0.45343  1.0000
  C   C213      1.0  0.35051  0.19505  0.54941  1.0000
  C   C214      1.0  0.30151  0.14819  0.49128  1.0000
  C   C215      1.0  0.31330  0.23264  0.55023  1.0000
  O   O151      1.0  0.37121  0.06954  0.48956  1.0000
  C   C216      1.0  0.26405  0.18563  0.49192  1.0000
  O   O152      1.0  0.15263  0.16606  0.48190  1.0000
  O   O153      1.0  0.21535  0.13452  0.41510  1.0000
  O   O154      1.0  0.19984  0.22207  0.41889  1.0000
  H   H121      1.0  0.38351  0.19988  0.57197  1.0000
  H   H122      1.0  0.29588  0.11603  0.46782  1.0000
  H   H123      1.0  0.31902  0.26502  0.57343  1.0000
  H   H124      1.0  0.16093  0.16010  0.51726  1.0000
  H   H125      1.0  0.18098  0.23498  0.57343  1.0000
  H   H126      1.0  0.33907  0.33990  0.51726  1.0000
  O   O155      1.0  0.06753  0.36614  0.49856  1.0000
  C   C217      1.0  0.11213  0.38849  0.51803  1.0000
  C   C218      1.0  0.15424  0.34802  0.51973  1.0000
  C   C219      1.0  0.23060  0.27098  0.52150  1.0000
  S   S32       1.0  0.29076  0.32297  0.45343  1.0000
  C   C220      1.0  0.14949  0.30495  0.54941  1.0000
  C   C221      1.0  0.19849  0.35181  0.49128  1.0000
  C   C222      1.0  0.18670  0.26736  0.55023  1.0000
  O   O156      1.0  0.12879  0.43046  0.48956  1.0000
  C   C223      1.0  0.23595  0.31437  0.49192  1.0000
  O   O157      1.0  0.34737  0.33394  0.48190  1.0000
  O   O158      1.0  0.28465  0.36548  0.41510  1.0000
  O   O159      1.0  0.30016  0.27793  0.41889  1.0000
  H   H127      1.0  0.11649  0.30012  0.57197  1.0000
  H   H128      1.0  0.20412  0.38397  0.46782  1.0000
  O   O160      1.0  0.43247  0.13386  0.49856  1.0000
  C   C224      1.0  0.38787  0.11151  0.51803  1.0000
  H   H129      1.0  0.42657  0.18098  0.76502  1.0000
  H   H130      1.0  0.48274  0.33907  0.66010  1.0000
  O   O161      1.0  0.50144  0.06753  0.63386  1.0000
  C   C225      1.0  0.48197  0.11213  0.61151  1.0000
  C   C226      1.0  0.48027  0.15424  0.65198  1.0000
  C   C227      1.0  0.47850  0.23060  0.72902  1.0000
  S   S33       1.0  0.54657  0.29076  0.67703  1.0000
  C   C228      1.0  0.45059  0.14949  0.69505  1.0000
  C   C229      1.0  0.50872  0.19849  0.64819  1.0000
  C   C230      1.0  0.44977  0.18670  0.73264  1.0000
  O   O162      1.0  0.51044  0.12879  0.56954  1.0000
  C   C231      1.0  0.50808  0.23595  0.68563  1.0000
  O   O163      1.0  0.51810  0.34737  0.66606  1.0000
  O   O164      1.0  0.58490  0.28465  0.63452  1.0000
  O   O165      1.0  0.58111  0.30016  0.72207  1.0000
  H   H131      1.0  0.42803  0.11649  0.69988  1.0000
  H   H132      1.0  0.53218  0.20412  0.61603  1.0000
  O   O166      1.0  0.50144  0.43247  0.86614  1.0000
  C   C232      1.0  0.48197  0.38787  0.88849  1.0000
  C   C233      1.0  0.48027  0.34576  0.84802  1.0000
  C   C234      1.0  0.47850  0.26940  0.77098  1.0000
  S   S34       1.0  0.54657  0.20924  0.82297  1.0000
  C   C235      1.0  0.45059  0.35051  0.80495  1.0000
  C   C236      1.0  0.50872  0.30151  0.85181  1.0000
  C   C237      1.0  0.44977  0.31330  0.76736  1.0000
  O   O167      1.0  0.51044  0.37121  0.93046  1.0000
  C   C238      1.0  0.50808  0.26405  0.81437  1.0000
  O   O168      1.0  0.51810  0.15263  0.83394  1.0000
  O   O169      1.0  0.58490  0.21535  0.86548  1.0000
  O   O170      1.0  0.58111  0.19984  0.77793  1.0000
  H   H133      1.0  0.42803  0.38351  0.80012  1.0000
  H   H134      1.0  0.53218  0.29588  0.88397  1.0000
  H   H135      1.0  0.42657  0.31902  0.73498  1.0000
  H   H136      1.0  0.48274  0.16093  0.83990  1.0000
  O   O171      1.0  0.50144  0.93247  0.36614  1.0000
  H   H137      1.0  0.42657  0.68098  0.26502  1.0000
  H   H138      1.0  0.48274  0.83907  0.16010  1.0000
  O   O172      1.0  0.51044  0.87121  0.43046  1.0000
  O   O173      1.0  0.51810  0.65263  0.33394  1.0000
  O   O174      1.0  0.58490  0.71535  0.36548  1.0000
  O   O175      1.0  0.58111  0.69984  0.27793  1.0000
  H   H139      1.0  0.42803  0.88351  0.30012  1.0000
  C   C239      1.0  0.48197  0.88787  0.38849  1.0000
  C   C240      1.0  0.48027  0.84576  0.34802  1.0000
  C   C241      1.0  0.47850  0.76940  0.27098  1.0000
  S   S35       1.0  0.54657  0.70924  0.32297  1.0000
  C   C242      1.0  0.45059  0.85051  0.30495  1.0000
  C   C243      1.0  0.50872  0.80151  0.35181  1.0000
  C   C244      1.0  0.44977  0.81330  0.26736  1.0000
  H   H140      1.0  0.53218  0.79588  0.38397  1.0000
  C   C245      1.0  0.50808  0.76405  0.31437  1.0000
  C   C246      1.0  0.48197  0.61213  0.11151  1.0000
  C   C247      1.0  0.48027  0.65424  0.15198  1.0000
  C   C248      1.0  0.47850  0.73060  0.22902  1.0000
  S   S36       1.0  0.54657  0.79076  0.17703  1.0000
  C   C249      1.0  0.45059  0.64949  0.19505  1.0000
  C   C250      1.0  0.50872  0.69849  0.14819  1.0000
  C   C251      1.0  0.44977  0.68670  0.23264  1.0000
  O   O176      1.0  0.50144  0.56753  0.13386  1.0000
  C   C252      1.0  0.50808  0.73595  0.18563  1.0000
  O   O177      1.0  0.51810  0.84737  0.16606  1.0000
  O   O178      1.0  0.58490  0.78465  0.13452  1.0000
  O   O179      1.0  0.58111  0.80016  0.22207  1.0000
  H   H141      1.0  0.42803  0.61649  0.19988  1.0000
  H   H142      1.0  0.53218  0.70412  0.11603  1.0000
  O   O180      1.0  0.51044  0.62879  0.06954  1.0000
  H   H143      1.0  0.42657  0.81902  0.23498  1.0000
  H   H144      1.0  0.48274  0.66093  0.33990  1.0000
  H   H145      1.0  0.92657  0.31902  0.23498  1.0000
  H   H146      1.0  0.98274  0.16093  0.33990  1.0000
  O   O181      1.0  0.00144  0.06753  0.13386  1.0000
  C   C253      1.0  0.98197  0.11213  0.11151  1.0000
  C   C254      1.0  0.98027  0.15424  0.15198  1.0000
  C   C255      1.0  0.97850  0.23060  0.22902  1.0000
  S   S37       1.0  0.04657  0.29076  0.17703  1.0000
  C   C256      1.0  0.95059  0.14949  0.19505  1.0000
  C   C257      1.0  0.00872  0.19849  0.14819  1.0000
  C   C258      1.0  0.94977  0.18670  0.23264  1.0000
  O   O182      1.0  0.01044  0.12879  0.06954  1.0000
  C   C259      1.0  0.00808  0.23595  0.18563  1.0000
  O   O183      1.0  0.01810  0.34737  0.16606  1.0000
  O   O184      1.0  0.08490  0.28465  0.13452  1.0000
  O   O185      1.0  0.08111  0.30016  0.22207  1.0000
  H   H147      1.0  0.92803  0.11649  0.19988  1.0000
  H   H148      1.0  0.03218  0.20412  0.11603  1.0000
  O   O186      1.0  0.00144  0.43247  0.36614  1.0000
  C   C260      1.0  0.98197  0.38787  0.38849  1.0000
  C   C261      1.0  0.98027  0.34576  0.34802  1.0000
  C   C262      1.0  0.97850  0.26940  0.27098  1.0000
  S   S38       1.0  0.04657  0.20924  0.32297  1.0000
  C   C263      1.0  0.95059  0.35051  0.30495  1.0000
  C   C264      1.0  0.00872  0.30151  0.35181  1.0000
  C   C265      1.0  0.94977  0.31330  0.26736  1.0000
  H   H149      1.0  0.92657  0.18098  0.26502  1.0000
  C   C266      1.0  0.00808  0.26405  0.31437  1.0000
  O   O187      1.0  0.01810  0.15263  0.33394  1.0000
  O   O188      1.0  0.08490  0.21535  0.36548  1.0000
  O   O189      1.0  0.08111  0.19984  0.27793  1.0000
  H   H150      1.0  0.92803  0.38351  0.30012  1.0000
  H   H151      1.0  0.03218  0.29588  0.38397  1.0000
  H   H152      1.0  0.98274  0.33907  0.16010  1.0000
  O   O190      1.0  0.01044  0.37121  0.43046  1.0000
  H   H153      1.0  0.92657  0.81902  0.73498  1.0000
  H   H154      1.0  0.98274  0.66093  0.83990  1.0000
  O   O191      1.0  0.01810  0.65263  0.83394  1.0000
  O   O192      1.0  0.08490  0.71535  0.86548  1.0000
  O   O193      1.0  0.08111  0.69984  0.77793  1.0000
  H   H155      1.0  0.92803  0.88351  0.80012  1.0000
  H   H156      1.0  0.03218  0.79588  0.88397  1.0000
  O   O194      1.0  0.00144  0.93247  0.86614  1.0000
  C   C267      1.0  0.98197  0.88787  0.88849  1.0000
  C   C268      1.0  0.98027  0.84576  0.84802  1.0000
  C   C269      1.0  0.97850  0.76940  0.77098  1.0000
  S   S39       1.0  0.04657  0.70924  0.82297  1.0000
  C   C270      1.0  0.95059  0.85051  0.80495  1.0000
  C   C271      1.0  0.00872  0.80151  0.85181  1.0000
  C   C272      1.0  0.94977  0.81330  0.76736  1.0000
  O   O195      1.0  0.01044  0.87121  0.93046  1.0000
  C   C273      1.0  0.00808  0.76405  0.81437  1.0000
  C   C274      1.0  0.98197  0.61213  0.61151  1.0000
  C   C275      1.0  0.98027  0.65424  0.65198  1.0000
  C   C276      1.0  0.97850  0.73060  0.72902  1.0000
  S   S40       1.0  0.04657  0.79076  0.67703  1.0000
  C   C277      1.0  0.95059  0.64949  0.69505  1.0000
  C   C278      1.0  0.00872  0.69849  0.64819  1.0000
  C   C279      1.0  0.94977  0.68670  0.73264  1.0000
  O   O196      1.0  0.00144  0.56753  0.63386  1.0000
  C   C280      1.0  0.00808  0.73595  0.68563  1.0000
  O   O197      1.0  0.01810  0.84737  0.66606  1.0000
  O   O198      1.0  0.08490  0.78465  0.63452  1.0000
  O   O199      1.0  0.08111  0.80016  0.72207  1.0000
  H   H157      1.0  0.92803  0.61649  0.69988  1.0000
  H   H158      1.0  0.03218  0.70412  0.61603  1.0000
  O   O200      1.0  0.01044  0.62879  0.56954  1.0000
  H   H159      1.0  0.92657  0.68098  0.76502  1.0000
  H   H160      1.0  0.98274  0.83907  0.66010  1.0000
  O   O201      1.0  0.49856  0.56753  0.86614  1.0000
  C   C281      1.0  0.51803  0.61213  0.88849  1.0000
  O   O202      1.0  0.49856  0.93247  0.63386  1.0000
  C   C282      1.0  0.51803  0.88787  0.61151  1.0000
  C   C283      1.0  0.51973  0.84576  0.65198  1.0000
  C   C284      1.0  0.52150  0.76940  0.72902  1.0000
  S   S41       1.0  0.45343  0.70924  0.67703  1.0000
  C   C285      1.0  0.54941  0.85051  0.69505  1.0000
  C   C286      1.0  0.49128  0.80151  0.64819  1.0000
  C   C287      1.0  0.55023  0.81330  0.73264  1.0000
  O   O203      1.0  0.48956  0.87121  0.56954  1.0000
  C   C288      1.0  0.49192  0.76405  0.68563  1.0000
  O   O204      1.0  0.48190  0.65263  0.66606  1.0000
  O   O205      1.0  0.41510  0.71535  0.63452  1.0000
  O   O206      1.0  0.41889  0.69984  0.72207  1.0000
  S   S42       1.0  0.45343  0.79076  0.82297  1.0000
  C   C289      1.0  0.54941  0.64949  0.80495  1.0000
  C   C290      1.0  0.52150  0.73060  0.77098  1.0000
  H   H161      1.0  0.57197  0.88351  0.69988  1.0000
  C   C291      1.0  0.49128  0.69849  0.85181  1.0000
  C   C292      1.0  0.49192  0.73595  0.81437  1.0000
  C   C293      1.0  0.55023  0.68670  0.76736  1.0000
  H   H162      1.0  0.46782  0.79588  0.61603  1.0000
  O   O207      1.0  0.41889  0.80016  0.77793  1.0000
  H   H163      1.0  0.57197  0.61649  0.80012  1.0000
  O   O208      1.0  0.48190  0.84737  0.83394  1.0000
  O   O209      1.0  0.41510  0.78465  0.86548  1.0000
  H   H164      1.0  0.57343  0.81902  0.76502  1.0000
  H   H165      1.0  0.46782  0.70412  0.88397  1.0000
  H   H166      1.0  0.51726  0.66093  0.66010  1.0000
  O   O210      1.0  0.48956  0.62879  0.93046  1.0000
  C   C294      1.0  0.51973  0.65424  0.84802  1.0000
  H   H167      1.0  0.57343  0.68098  0.73498  1.0000
  H   H168      1.0  0.51726  0.83907  0.83990  1.0000
  O   O211      1.0  0.49856  0.06753  0.36614  1.0000
  C   C295      1.0  0.51803  0.11213  0.38849  1.0000
  C   C296      1.0  0.51973  0.15424  0.34802  1.0000
  C   C297      1.0  0.52150  0.23060  0.27098  1.0000
  S   S43       1.0  0.45343  0.29076  0.32297  1.0000
  C   C298      1.0  0.54941  0.14949  0.30495  1.0000
  C   C299      1.0  0.49128  0.19849  0.35181  1.0000
  C   C300      1.0  0.55023  0.18670  0.26736  1.0000
  O   O212      1.0  0.48956  0.12879  0.43046  1.0000
  C   C301      1.0  0.49192  0.23595  0.31437  1.0000
  O   O213      1.0  0.48190  0.34737  0.33394  1.0000
  O   O214      1.0  0.41510  0.28465  0.36548  1.0000
  O   O215      1.0  0.41889  0.30016  0.27793  1.0000
  H   H169      1.0  0.57197  0.11649  0.30012  1.0000
  H   H170      1.0  0.46782  0.20412  0.38397  1.0000
  O   O216      1.0  0.49856  0.43247  0.13386  1.0000
  C   C302      1.0  0.51803  0.38787  0.11151  1.0000
  C   C303      1.0  0.51973  0.34576  0.15198  1.0000
  C   C304      1.0  0.52150  0.26940  0.22902  1.0000
  S   S44       1.0  0.45343  0.20924  0.17703  1.0000
  C   C305      1.0  0.54941  0.35051  0.19505  1.0000
  C   C306      1.0  0.49128  0.30151  0.14819  1.0000
  C   C307      1.0  0.55023  0.31330  0.23264  1.0000
  O   O217      1.0  0.48956  0.37121  0.06954  1.0000
  C   C308      1.0  0.49192  0.26405  0.18563  1.0000
  O   O218      1.0  0.48190  0.15263  0.16606  1.0000
  O   O219      1.0  0.41510  0.21535  0.13452  1.0000
  O   O220      1.0  0.41889  0.19984  0.22207  1.0000
  H   H171      1.0  0.57197  0.38351  0.19988  1.0000
  H   H172      1.0  0.46782  0.29588  0.11603  1.0000
  H   H173      1.0  0.57343  0.31902  0.26502  1.0000
  H   H174      1.0  0.51726  0.16093  0.16010  1.0000
  H   H175      1.0  0.57343  0.18098  0.23498  1.0000
  H   H176      1.0  0.51726  0.33907  0.33990  1.0000
  O   O221      1.0  0.91510  0.78465  0.36548  1.0000
  O   O222      1.0  0.91889  0.80016  0.27793  1.0000
  H   H177      1.0  0.07197  0.61649  0.30012  1.0000
  H   H178      1.0  0.96782  0.70412  0.38397  1.0000
  O   O223      1.0  0.98956  0.62879  0.43046  1.0000
  H   H179      1.0  0.07343  0.68098  0.23498  1.0000
  H   H180      1.0  0.01726  0.83907  0.33990  1.0000
  H   H181      1.0  0.07343  0.81902  0.26502  1.0000
  H   H182      1.0  0.01726  0.66093  0.16010  1.0000
  O   O224      1.0  0.99856  0.56753  0.36614  1.0000
  C   C309      1.0  0.01803  0.61213  0.38849  1.0000
  H   H183      1.0  0.96782  0.79588  0.11603  1.0000
  C   C310      1.0  0.01973  0.65424  0.34802  1.0000
  C   C311      1.0  0.99128  0.69849  0.35181  1.0000
  O   O225      1.0  0.99856  0.93247  0.13386  1.0000
  C   C312      1.0  0.01803  0.88787  0.11151  1.0000
  C   C313      1.0  0.01973  0.84576  0.15198  1.0000
  C   C314      1.0  0.02150  0.76940  0.22902  1.0000
  S   S45       1.0  0.95343  0.70924  0.17703  1.0000
  C   C315      1.0  0.04941  0.85051  0.19505  1.0000
  C   C316      1.0  0.99128  0.80151  0.14819  1.0000
  C   C317      1.0  0.05023  0.81330  0.23264  1.0000
  O   O226      1.0  0.91889  0.69984  0.22207  1.0000
  C   C318      1.0  0.99192  0.76405  0.18563  1.0000
  O   O227      1.0  0.98190  0.65263  0.16606  1.0000
  O   O228      1.0  0.91510  0.71535  0.13452  1.0000
  C   C319      1.0  0.02150  0.73060  0.27098  1.0000
  S   S46       1.0  0.95343  0.79076  0.32297  1.0000
  H   H184      1.0  0.07197  0.88351  0.19988  1.0000
  C   C320      1.0  0.04941  0.64949  0.30495  1.0000
  C   C321      1.0  0.05023  0.68670  0.26736  1.0000
  O   O229      1.0  0.98956  0.87121  0.06954  1.0000
  C   C322      1.0  0.99192  0.73595  0.31437  1.0000
  O   O230      1.0  0.98190  0.84737  0.33394  1.0000
  C   C323      1.0  0.02150  0.26940  0.72902  1.0000
  S   S47       1.0  0.95343  0.20924  0.67703  1.0000
  C   C324      1.0  0.04941  0.35051  0.69505  1.0000
  C   C325      1.0  0.99128  0.30151  0.64819  1.0000
  C   C326      1.0  0.05023  0.31330  0.73264  1.0000
  O   O231      1.0  0.98956  0.37121  0.56954  1.0000
  C   C327      1.0  0.99192  0.26405  0.68563  1.0000
  O   O232      1.0  0.98190  0.15263  0.66606  1.0000
  O   O233      1.0  0.91510  0.21535  0.63452  1.0000
  O   O234      1.0  0.91889  0.19984  0.72207  1.0000
  H   H185      1.0  0.07197  0.38351  0.69988  1.0000
  H   H186      1.0  0.96782  0.29588  0.61603  1.0000
  H   H187      1.0  0.07343  0.18098  0.73498  1.0000
  H   H188      1.0  0.01726  0.33907  0.83990  1.0000
  H   H189      1.0  0.07343  0.31902  0.76502  1.0000
  H   H190      1.0  0.01726  0.16093  0.66010  1.0000
  O   O235      1.0  0.99856  0.06753  0.86614  1.0000
  C   C328      1.0  0.01803  0.11213  0.88849  1.0000
  C   C329      1.0  0.01973  0.15424  0.84802  1.0000
  C   C330      1.0  0.02150  0.23060  0.77098  1.0000
  S   S48       1.0  0.95343  0.29076  0.82297  1.0000
  C   C331      1.0  0.04941  0.14949  0.80495  1.0000
  C   C332      1.0  0.99128  0.19849  0.85181  1.0000
  C   C333      1.0  0.05023  0.18670  0.76736  1.0000
  O   O236      1.0  0.98956  0.12879  0.93046  1.0000
  C   C334      1.0  0.99192  0.23595  0.81437  1.0000
  O   O237      1.0  0.98190  0.34737  0.83394  1.0000
  O   O238      1.0  0.91510  0.28465  0.86548  1.0000
  O   O239      1.0  0.91889  0.30016  0.77793  1.0000
  H   H191      1.0  0.07197  0.11649  0.80012  1.0000
  H   H192      1.0  0.96782  0.20412  0.88397  1.0000
  O   O240      1.0  0.99856  0.43247  0.63386  1.0000
  C   C335      1.0  0.01803  0.38787  0.61151  1.0000
  C   C336      1.0  0.01973  0.34576  0.65198  1.0000
  Zr  Zr1       1.0  0.41111  0.00000  0.50000  1.0000
  Zr  Zr2       1.0  0.41111  0.50000  0.00000  1.0000
  Zr  Zr3       1.0  0.91111  0.00000  0.00000  1.0000
  Zr  Zr4       1.0  0.91111  0.50000  0.50000  1.0000
  Zr  Zr5       1.0  0.58889  0.00000  0.50000  1.0000
  Zr  Zr6       1.0  0.58889  0.50000  0.00000  1.0000
  Zr  Zr7       1.0  0.08889  0.00000  0.00000  1.0000
  Zr  Zr8       1.0  0.08889  0.50000  0.50000  1.0000
  Zr  Zr9       1.0  0.50000  0.41111  0.00000  1.0000
  Zr  Zr10      1.0  0.50000  0.91111  0.50000  1.0000
  Zr  Zr11      1.0  0.00000  0.41111  0.50000  1.0000
  Zr  Zr12      1.0  0.00000  0.91111  0.00000  1.0000
  Zr  Zr13      1.0  0.50000  0.58889  0.00000  1.0000
  Zr  Zr14      1.0  0.50000  0.08889  0.50000  1.0000
  Zr  Zr15      1.0  0.00000  0.58889  0.50000  1.0000
  Zr  Zr16      1.0  0.00000  0.08889  0.00000  1.0000
  Zr  Zr17      1.0  0.00000  0.50000  0.41111  1.0000
  Zr  Zr18      1.0  0.00000  0.00000  0.91111  1.0000
  Zr  Zr19      1.0  0.50000  0.50000  0.91111  1.0000
  Zr  Zr20      1.0  0.50000  0.00000  0.41111  1.0000
  Zr  Zr21      1.0  0.00000  0.50000  0.58889  1.0000
  Zr  Zr22      1.0  0.00000  0.00000  0.08889  1.0000
  Zr  Zr23      1.0  0.50000  0.50000  0.08889  1.0000
  Zr  Zr24      1.0  0.50000  0.00000  0.58889  1.0000
  O   O241      1.0  0.45448  0.04552  0.54552  1.0000
  O   O242      1.0  0.54552  0.95448  0.54552  1.0000
  O   O243      1.0  0.54552  0.04552  0.45448  1.0000
  O   O244      1.0  0.45448  0.95448  0.45448  1.0000
  O   O245      1.0  0.54552  0.45448  0.04552  1.0000
  O   O246      1.0  0.54552  0.54552  0.95448  1.0000
  O   O247      1.0  0.45448  0.54552  0.04552  1.0000
  O   O248      1.0  0.45448  0.45448  0.95448  1.0000
  O   O249      1.0  0.04552  0.54552  0.45448  1.0000
  O   O250      1.0  0.04552  0.04552  0.95448  1.0000
  O   O251      1.0  0.95448  0.54552  0.54552  1.0000
  O   O252      1.0  0.95448  0.04552  0.04552  1.0000
  O   O253      1.0  0.04552  0.45448  0.54552  1.0000
  O   O254      1.0  0.04552  0.95448  0.04552  1.0000
  O   O255      1.0  0.95448  0.45448  0.45448  1.0000
  O   O256      1.0  0.95448  0.95448  0.95448  1.0000
  O   O257      1.0  0.45502  0.04498  0.45502  1.0000
  O   O258      1.0  0.54498  0.95502  0.45502  1.0000
  O   O259      1.0  0.04498  0.45502  0.45502  1.0000
  O   O260      1.0  0.54498  0.04498  0.54498  1.0000
  O   O261      1.0  0.04498  0.04498  0.04498  1.0000
  O   O262      1.0  0.45502  0.95502  0.54498  1.0000
  O   O263      1.0  0.45502  0.45502  0.04498  1.0000
  O   O264      1.0  0.45502  0.54498  0.95502  1.0000
  O   O265      1.0  0.54498  0.54498  0.04498  1.0000
  O   O266      1.0  0.54498  0.45502  0.95502  1.0000
  O   O267      1.0  0.04498  0.95502  0.95502  1.0000
  O   O268      1.0  0.95502  0.45502  0.54498  1.0000
  O   O269      1.0  0.95502  0.95502  0.04498  1.0000
  O   O270      1.0  0.04498  0.54498  0.54498  1.0000
  O   O271      1.0  0.95502  0.54498  0.45502  1.0000
  O   O272      1.0  0.95502  0.04498  0.95502  1.0000
