data_image0
_chemical_formula_structural       SO3N2C4H2C2HCHCHCHC2H3SO3N2C5H2CHCHCHCHC2H3SO3N2C2H2C3HCHC2HCHC2H3CH2C2HCHCHCHC2H3SO3N2C3H2CHCHCHCHC2H3SO3N2C6HCHC2HCHC2H3SO3N2C2H2C4H3SO3N2C4H2C2HCHCHCHSO3N2C5H2CHCHCHCHC2H3SO3N2C2H2C3HCHC2HCHC2H3SO3N2C4H2C2HCHCHCHC2H3SO3N2C5H2CHCHCHCHC2H3SO3N2C2H2C3HCHC2HCHC2H3C2H2C2HCHCHCHC2H3SO3N2C4H2CHCHCHCHC2H3SO3N2C6HCHC2HCHC2H3SO3N2C2H3CHCHC2H3SO3N2C4H2C2HCSO3N2C5H2CHCHCHCHC2H3SO3N2C2H2C3HCHC2HCHC2H3SO3N2C4H2C2HCHCHCHC2H3SO3N2C5H2CHCHCHCHC2H3SO3N2C2H2C3HCHC2HCHC2H3C4H2C2HCHCHCHC2H3SO3N2C2H2CHCHCHCHC2H3SO3N2C4H2C3HCHC2HCHC2H3SO3N2CCu48
_chemical_formula_sum              "S24 O72 N48 C264 H216 Cu48"
_cell_length_a       21.8459
_cell_length_b       19.8487
_cell_length_c       25.4804
_cell_angle_alpha    90
_cell_angle_beta     90
_cell_angle_gamma    90

_space_group_name_H-M_alt    "P 1"
_space_group_IT_number       1

loop_
  _space_group_symop_operation_xyz
  'x, y, z'

loop_
  _atom_site_type_symbol
  _atom_site_label
  _atom_site_symmetry_multiplicity
  _atom_site_fract_x
  _atom_site_fract_y
  _atom_site_fract_z
  _atom_site_occupancy
  S   S1        1.0  0.44462  0.87775  0.53143  1.0000
  O   O1        1.0  0.29720  0.69620  0.60646  1.0000
  O   O2        1.0  0.50250  0.82580  0.70061  1.0000
  O   O3        1.0  0.36730  0.71090  0.66770  1.0000
  N   N1        1.0  0.50850  0.88090  0.61996  1.0000
  N   N2        1.0  0.43150  0.79850  0.61510  1.0000
  C   C1        1.0  0.52330  0.87000  0.66990  1.0000
  C   C2        1.0  0.34730  0.72150  0.62190  1.0000
  C   C3        1.0  0.46190  0.84690  0.59460  1.0000
  C   C4        1.0  0.38270  0.76500  0.58520  1.0000
  H   H1        1.0  0.40061  0.73739  0.55676  1.0000
  H   H2        1.0  0.35536  0.79911  0.56920  1.0000
  C   C5        1.0  0.56950  0.91770  0.69270  1.0000
  C   C6        1.0  0.62230  0.93500  0.66540  1.0000
  H   H3        1.0  0.63084  0.91467  0.63249  1.0000
  C   C7        1.0  0.55820  0.94830  0.74070  1.0000
  H   H4        1.0  0.52269  0.93691  0.76030  1.0000
  C   C8        1.0  0.66240  0.98170  0.68610  1.0000
  H   H5        1.0  0.69876  0.99219  0.66743  1.0000
  C   C9        1.0  0.59950  0.99620  0.76000  1.0000
  H   H6        1.0  0.59145  0.01708  0.79285  1.0000
  C   C10       1.0  0.65100  0.01360  0.73310  1.0000
  C   C11       1.0  0.69520  0.06640  0.75390  1.0000
  H   H7        1.0  0.72215  0.04589  0.78013  1.0000
  H   H8        1.0  0.67199  0.10321  0.77005  1.0000
  H   H9        1.0  0.71982  0.08412  0.72487  1.0000
  S   S2        1.0  0.48705  0.56340  0.90904  1.0000
  O   O4        1.0  0.66940  0.58110  0.82278  1.0000
  O   O5        1.0  0.54840  0.67510  0.73795  1.0000
  O   O6        1.0  0.45140  0.70810  0.74594  1.0000
  N   N3        1.0  0.54540  0.59900  0.82211  1.0000
  N   N4        1.0  0.60100  0.53130  0.88183  1.0000
  C   C12       1.0  0.54940  0.56550  0.86540  1.0000
  C   C13       1.0  0.65610  0.54120  0.86050  1.0000
  C   C14       1.0  0.49750  0.67610  0.76100  1.0000
  C   C15       1.0  0.70820  0.50420  0.88380  1.0000
  C   C16       1.0  0.48860  0.63450  0.80990  1.0000
  H   H10       1.0  0.47715  0.66407  0.83958  1.0000
  H   H11       1.0  0.45520  0.60157  0.80437  1.0000
  C   C17       1.0  0.76420  0.53420  0.88780  1.0000
  H   H12       1.0  0.76957  0.57873  0.87497  1.0000
  C   C18       1.0  0.70210  0.43750  0.90100  1.0000
  H   H13       1.0  0.66394  0.41504  0.89720  1.0000
  C   C19       1.0  0.81340  0.50090  0.91030  1.0000
  H   H14       1.0  0.85164  0.52333  0.91338  1.0000
  C   C20       1.0  0.75100  0.40400  0.92330  1.0000
  H   H15       1.0  0.74597  0.35903  0.93526  1.0000
  C   C21       1.0  0.80750  0.43540  0.92850  1.0000
  C   C22       1.0  0.85950  0.40010  0.95460  1.0000
  H   H16       1.0  0.88978  0.38680  0.92816  1.0000
  H   H17       1.0  0.84431  0.35989  0.97272  1.0000
  H   H18       1.0  0.87873  0.43042  0.98013  1.0000
  S   S3        1.0  0.12576  0.52840  0.47323  1.0000
  O   O7        1.0  0.18440  0.71380  0.56652  1.0000
  O   O8        1.0  0.33170  0.64030  0.50683  1.0000
  O   O9        1.0  0.36190  0.56080  0.45130  1.0000
  N   N5        1.0  0.21410  0.61700  0.49430  1.0000
  N   N6        1.0  0.11410  0.64670  0.52101  1.0000
  C   C23       1.0  0.15650  0.60430  0.49750  1.0000
  C   C24       1.0  0.25540  0.56960  0.46890  1.0000
  H   H19       1.0  0.24524  0.56667  0.43106  1.0000
  H   H20       1.0  0.24998  0.52434  0.48447  1.0000
  C   C25       1.0  0.13090  0.69710  0.55340  1.0000
  C   C26       1.0  0.08000  0.73620  0.57790  1.0000
  C   C27       1.0  0.02640  0.75280  0.55210  1.0000
  H   H21       1.0  0.02067  0.73893  0.51674  1.0000
  C   C28       1.0  0.08760  0.75800  0.62970  1.0000
  H   H22       1.0  0.12446  0.74817  0.64794  1.0000
  C   C29       1.0  0.32190  0.59210  0.47530  1.0000
  C   C30       1.0  0.98050  0.78960  0.57710  1.0000
  H   H23       1.0  0.94430  0.80137  0.55866  1.0000
  C   C31       1.0  0.04140  0.79400  0.65440  1.0000
  H   H24       1.0  0.04697  0.80848  0.68965  1.0000
  C   C32       1.0  0.98780  0.80910  0.62890  1.0000
  C   C33       1.0  0.93690  0.84620  0.65680  1.0000
  H   H25       1.0  0.90941  0.86650  0.63079  1.0000
  H   H26       1.0  0.95437  0.88163  0.67896  1.0000
  H   H27       1.0  0.91379  0.81450  0.67864  1.0000
  C   C34       1.0  0.11730  0.23500  0.08520  1.0000
  H   H28       1.0  0.09939  0.26261  0.05676  1.0000
  H   H29       1.0  0.14464  0.20089  0.06920  1.0000
  C   C35       1.0  0.93050  0.08230  0.19270  1.0000
  C   C36       1.0  0.87770  0.06500  0.16540  1.0000
  H   H30       1.0  0.86916  0.08533  0.13249  1.0000
  C   C37       1.0  0.94180  0.05170  0.24070  1.0000
  H   H31       1.0  0.97731  0.06309  0.26030  1.0000
  C   C38       1.0  0.83760  0.01830  0.18610  1.0000
  H   H32       1.0  0.80124  0.00781  0.16743  1.0000
  C   C39       1.0  0.90050  0.00380  0.26000  1.0000
  H   H33       1.0  0.90855  0.98292  0.29285  1.0000
  C   C40       1.0  0.84900  0.98640  0.23310  1.0000
  C   C41       1.0  0.80480  0.93360  0.25390  1.0000
  H   H34       1.0  0.77785  0.95411  0.28013  1.0000
  H   H35       1.0  0.82801  0.89679  0.27005  1.0000
  H   H36       1.0  0.78018  0.91588  0.22487  1.0000
  S   S4        1.0  0.05538  0.12225  0.03143  1.0000
  O   O10       1.0  0.20280  0.30380  0.10646  1.0000
  O   O11       1.0  0.99750  0.17420  0.20061  1.0000
  O   O12       1.0  0.13270  0.28910  0.16770  1.0000
  N   N7        1.0  0.99150  0.11910  0.11996  1.0000
  N   N8        1.0  0.06850  0.20150  0.11510  1.0000
  C   C42       1.0  0.97670  0.13000  0.16990  1.0000
  C   C43       1.0  0.15270  0.27850  0.12190  1.0000
  C   C44       1.0  0.03810  0.15310  0.09460  1.0000
  H   H37       1.0  0.02285  0.33593  0.33958  1.0000
  H   H38       1.0  0.04480  0.39843  0.30437  1.0000
  C   C45       1.0  0.73580  0.46580  0.38780  1.0000
  H   H39       1.0  0.73043  0.42127  0.37497  1.0000
  C   C46       1.0  0.79790  0.56250  0.40100  1.0000
  H   H40       1.0  0.83606  0.58496  0.39720  1.0000
  C   C47       1.0  0.68660  0.49910  0.41030  1.0000
  H   H41       1.0  0.64836  0.47667  0.41338  1.0000
  C   C48       1.0  0.74900  0.59600  0.42330  1.0000
  H   H42       1.0  0.75403  0.64097  0.43526  1.0000
  C   C49       1.0  0.69250  0.56460  0.42850  1.0000
  C   C50       1.0  0.64050  0.59990  0.45460  1.0000
  H   H43       1.0  0.61022  0.61320  0.42816  1.0000
  H   H44       1.0  0.65569  0.64011  0.47272  1.0000
  H   H45       1.0  0.62127  0.56958  0.48013  1.0000
  S   S5        1.0  0.01295  0.43660  0.40904  1.0000
  O   O13       1.0  0.83060  0.41890  0.32278  1.0000
  O   O14       1.0  0.95160  0.32490  0.23795  1.0000
  O   O15       1.0  0.04860  0.29190  0.24594  1.0000
  N   N9        1.0  0.95460  0.40100  0.32211  1.0000
  N   N10       1.0  0.89900  0.46870  0.38183  1.0000
  C   C51       1.0  0.95060  0.43450  0.36540  1.0000
  C   C52       1.0  0.84390  0.45880  0.36050  1.0000
  C   C53       1.0  0.00250  0.32390  0.26100  1.0000
  C   C54       1.0  0.79180  0.49580  0.38380  1.0000
  C   C55       1.0  0.01140  0.36550  0.30990  1.0000
  C   C56       1.0  0.47360  0.24720  0.05210  1.0000
  H   H46       1.0  0.47933  0.26107  0.01674  1.0000
  C   C57       1.0  0.41240  0.24200  0.12970  1.0000
  H   H47       1.0  0.37554  0.25183  0.14794  1.0000
  C   C58       1.0  0.17810  0.40790  0.97530  1.0000
  C   C59       1.0  0.51950  0.21040  0.07710  1.0000
  H   H48       1.0  0.55570  0.19863  0.05866  1.0000
  C   C60       1.0  0.45860  0.20600  0.15440  1.0000
  H   H49       1.0  0.45303  0.19152  0.18965  1.0000
  C   C61       1.0  0.51220  0.19090  0.12890  1.0000
  C   C62       1.0  0.56310  0.15380  0.15680  1.0000
  H   H50       1.0  0.59059  0.13350  0.13079  1.0000
  H   H51       1.0  0.54563  0.11837  0.17896  1.0000
  H   H52       1.0  0.58621  0.18550  0.17864  1.0000
  S   S6        1.0  0.37424  0.47160  0.97323  1.0000
  O   O16       1.0  0.31560  0.28620  0.06652  1.0000
  O   O17       1.0  0.16830  0.35970  0.00683  1.0000
  O   O18       1.0  0.13810  0.43920  0.95130  1.0000
  N   N11       1.0  0.28590  0.38300  0.99430  1.0000
  N   N12       1.0  0.38590  0.35330  0.02101  1.0000
  C   C63       1.0  0.34350  0.39570  0.99750  1.0000
  C   C64       1.0  0.24460  0.43040  0.96890  1.0000
  H   H53       1.0  0.25476  0.43333  0.93106  1.0000
  H   H54       1.0  0.25002  0.47566  0.98447  1.0000
  C   C65       1.0  0.36910  0.30290  0.05340  1.0000
  C   C66       1.0  0.42000  0.26380  0.07790  1.0000
  C   C67       1.0  0.34900  0.51360  0.76690  1.0000
  C   C68       1.0  0.30480  0.56640  0.74610  1.0000
  H   H55       1.0  0.27785  0.54589  0.71987  1.0000
  H   H56       1.0  0.32801  0.60321  0.72995  1.0000
  H   H57       1.0  0.28018  0.58412  0.77513  1.0000
  S   S7        1.0  0.55538  0.37775  0.96857  1.0000
  O   O19       1.0  0.70280  0.19620  0.89354  1.0000
  O   O20       1.0  0.49750  0.32580  0.79939  1.0000
  O   O21       1.0  0.63270  0.21090  0.83230  1.0000
  N   N13       1.0  0.49150  0.38090  0.88004  1.0000
  N   N14       1.0  0.56850  0.29850  0.88490  1.0000
  C   C69       1.0  0.47670  0.37000  0.83010  1.0000
  C   C70       1.0  0.65270  0.22150  0.87810  1.0000
  C   C71       1.0  0.53810  0.34690  0.90540  1.0000
  C   C72       1.0  0.61730  0.26500  0.91480  1.0000
  H   H58       1.0  0.59939  0.23739  0.94324  1.0000
  H   H59       1.0  0.64464  0.29911  0.93080  1.0000
  C   C73       1.0  0.43050  0.41770  0.80730  1.0000
  C   C74       1.0  0.37770  0.43500  0.83460  1.0000
  H   H60       1.0  0.36916  0.41467  0.86751  1.0000
  C   C75       1.0  0.44180  0.44830  0.75930  1.0000
  H   H61       1.0  0.47731  0.43691  0.73970  1.0000
  C   C76       1.0  0.33760  0.48170  0.81390  1.0000
  H   H62       1.0  0.30124  0.49219  0.83257  1.0000
  C   C77       1.0  0.40050  0.49620  0.74000  1.0000
  H   H63       1.0  0.40855  0.51708  0.70715  1.0000
  S   S8        1.0  0.51295  0.06340  0.59096  1.0000
  O   O22       1.0  0.33060  0.08110  0.67722  1.0000
  O   O23       1.0  0.45160  0.17510  0.76205  1.0000
  O   O24       1.0  0.54860  0.20810  0.75406  1.0000
  N   N15       1.0  0.45460  0.09900  0.67789  1.0000
  N   N16       1.0  0.39900  0.03130  0.61817  1.0000
  C   C78       1.0  0.45060  0.06550  0.63460  1.0000
  C   C79       1.0  0.34390  0.04120  0.63950  1.0000
  C   C80       1.0  0.50250  0.17610  0.73900  1.0000
  C   C81       1.0  0.29180  0.00420  0.61620  1.0000
  C   C82       1.0  0.51140  0.13450  0.69010  1.0000
  H   H64       1.0  0.52285  0.16407  0.66042  1.0000
  H   H65       1.0  0.54480  0.10157  0.69563  1.0000
  C   C83       1.0  0.23580  0.03420  0.61220  1.0000
  H   H66       1.0  0.23043  0.07873  0.62503  1.0000
  C   C84       1.0  0.29790  0.93750  0.59900  1.0000
  H   H67       1.0  0.33606  0.91504  0.60280  1.0000
  C   C85       1.0  0.18660  0.00090  0.58970  1.0000
  H   H68       1.0  0.14836  0.02333  0.58662  1.0000
  C   C86       1.0  0.24900  0.90400  0.57670  1.0000
  H   H69       1.0  0.25403  0.85903  0.56474  1.0000
  C   C87       1.0  0.19250  0.93540  0.57150  1.0000
  C   C88       1.0  0.14050  0.90010  0.54540  1.0000
  H   H70       1.0  0.11022  0.88680  0.57184  1.0000
  H   H71       1.0  0.15569  0.85989  0.52728  1.0000
  H   H72       1.0  0.12127  0.93042  0.51987  1.0000
  S   S9        1.0  0.87424  0.02840  0.02677  1.0000
  O   O25       1.0  0.81560  0.21380  0.93348  1.0000
  O   O26       1.0  0.66830  0.14030  0.99317  1.0000
  O   O27       1.0  0.63810  0.06080  0.04870  1.0000
  N   N17       1.0  0.78590  0.11700  0.00570  1.0000
  N   N18       1.0  0.88590  0.14670  0.97899  1.0000
  C   C89       1.0  0.84350  0.10430  0.00250  1.0000
  C   C90       1.0  0.74460  0.06960  0.03110  1.0000
  H   H73       1.0  0.75476  0.06667  0.06894  1.0000
  H   H74       1.0  0.75002  0.02434  0.01553  1.0000
  C   C91       1.0  0.86910  0.19710  0.94660  1.0000
  C   C92       1.0  0.92000  0.23620  0.92210  1.0000
  C   C93       1.0  0.97360  0.25280  0.94790  1.0000
  H   H75       1.0  0.97933  0.23893  0.98326  1.0000
  C   C94       1.0  0.91240  0.25800  0.87030  1.0000
  H   H76       1.0  0.87554  0.24817  0.85206  1.0000
  C   C95       1.0  0.67810  0.09210  0.02470  1.0000
  C   C96       1.0  0.01950  0.28960  0.92290  1.0000
  H   H77       1.0  0.05570  0.30137  0.94134  1.0000
  C   C97       1.0  0.95860  0.29400  0.84560  1.0000
  H   H78       1.0  0.95303  0.30848  0.81035  1.0000
  C   C98       1.0  0.01220  0.30910  0.87110  1.0000
  C   C99       1.0  0.06310  0.34620  0.84320  1.0000
  H   H79       1.0  0.09059  0.36650  0.86921  1.0000
  H   H80       1.0  0.04563  0.38163  0.82104  1.0000
  H   H81       1.0  0.08621  0.31450  0.82136  1.0000
  S   S10       1.0  0.94462  0.62225  0.46857  1.0000
  O   O28       1.0  0.79720  0.80380  0.39354  1.0000
  O   O29       1.0  0.00250  0.67420  0.29939  1.0000
  O   O30       1.0  0.86730  0.78910  0.33230  1.0000
  N   N19       1.0  0.00850  0.61910  0.38004  1.0000
  N   N20       1.0  0.93150  0.70150  0.38490  1.0000
  C   C100      1.0  0.02330  0.63000  0.33010  1.0000
  C   C101      1.0  0.84730  0.77850  0.37810  1.0000
  C   C102      1.0  0.96190  0.65310  0.40540  1.0000
  C   C103      1.0  0.88270  0.73500  0.41480  1.0000
  H   H82       1.0  0.90061  0.76261  0.44324  1.0000
  H   H83       1.0  0.85536  0.70089  0.43080  1.0000
  C   C104      1.0  0.06950  0.58230  0.30730  1.0000
  C   C105      1.0  0.12230  0.56500  0.33460  1.0000
  H   H84       1.0  0.13084  0.58533  0.36751  1.0000
  C   C106      1.0  0.05820  0.55170  0.25930  1.0000
  H   H85       1.0  0.02269  0.56309  0.23970  1.0000
  C   C107      1.0  0.16240  0.51830  0.31390  1.0000
  H   H86       1.0  0.19876  0.50781  0.33257  1.0000
  C   C108      1.0  0.09950  0.50380  0.24000  1.0000
  H   H87       1.0  0.09145  0.48292  0.20715  1.0000
  C   C109      1.0  0.15100  0.48640  0.26690  1.0000
  C   C110      1.0  0.19520  0.43360  0.24610  1.0000
  H   H88       1.0  0.22215  0.45411  0.21987  1.0000
  H   H89       1.0  0.17199  0.39679  0.22995  1.0000
  H   H90       1.0  0.21982  0.41588  0.27513  1.0000
  S   S11       1.0  0.98705  0.93660  0.09096  1.0000
  O   O31       1.0  0.16940  0.91890  0.17722  1.0000
  O   O32       1.0  0.04840  0.82490  0.26205  1.0000
  O   O33       1.0  0.95140  0.79190  0.25406  1.0000
  N   N21       1.0  0.04540  0.90100  0.17789  1.0000
  N   N22       1.0  0.10100  0.96870  0.11817  1.0000
  C   C111      1.0  0.04940  0.93450  0.13460  1.0000
  C   C112      1.0  0.15610  0.95880  0.13950  1.0000
  C   C113      1.0  0.99750  0.82390  0.23900  1.0000
  C   C114      1.0  0.20820  0.99580  0.11620  1.0000
  C   C115      1.0  0.98860  0.86550  0.19010  1.0000
  H   H91       1.0  0.97715  0.83593  0.16042  1.0000
  H   H92       1.0  0.95520  0.89843  0.19563  1.0000
  C   C116      1.0  0.26420  0.96580  0.11220  1.0000
  H   H93       1.0  0.26957  0.92127  0.12503  1.0000
  C   C117      1.0  0.20210  0.06250  0.09900  1.0000
  H   H94       1.0  0.16394  0.08496  0.10280  1.0000
  C   C118      1.0  0.31340  0.99910  0.08970  1.0000
  H   H95       1.0  0.35164  0.97667  0.08662  1.0000
  C   C119      1.0  0.25100  0.09600  0.07670  1.0000
  H   H96       1.0  0.24597  0.14097  0.06474  1.0000
  C   C120      1.0  0.30750  0.06460  0.07150  1.0000
  C   C121      1.0  0.35950  0.09990  0.04540  1.0000
  H   H97       1.0  0.38978  0.11320  0.07184  1.0000
  H   H98       1.0  0.34431  0.14011  0.02728  1.0000
  H   H99       1.0  0.37873  0.06958  0.01987  1.0000
  S   S12       1.0  0.62576  0.97160  0.52677  1.0000
  O   O34       1.0  0.68440  0.78620  0.43348  1.0000
  O   O35       1.0  0.83170  0.85970  0.49317  1.0000
  O   O36       1.0  0.86190  0.93920  0.54870  1.0000
  N   N23       1.0  0.71410  0.88300  0.50570  1.0000
  N   N24       1.0  0.61410  0.85330  0.47899  1.0000
  C   C122      1.0  0.65650  0.89570  0.50250  1.0000
  C   C123      1.0  0.75540  0.93040  0.53110  1.0000
  H   H100      1.0  0.74524  0.93333  0.56894  1.0000
  H   H101      1.0  0.74998  0.97566  0.51553  1.0000
  C   C124      1.0  0.63090  0.80290  0.44660  1.0000
  C   C125      1.0  0.58000  0.76380  0.42210  1.0000
  C   C126      1.0  0.52640  0.74720  0.44790  1.0000
  H   H102      1.0  0.52067  0.76107  0.48326  1.0000
  C   C127      1.0  0.58760  0.74200  0.37030  1.0000
  H   H103      1.0  0.62446  0.75183  0.35206  1.0000
  C   C128      1.0  0.82190  0.90790  0.52470  1.0000
  C   C129      1.0  0.48050  0.71040  0.42290  1.0000
  H   H104      1.0  0.44430  0.69863  0.44134  1.0000
  C   C130      1.0  0.54140  0.70600  0.34560  1.0000
  H   H105      1.0  0.54697  0.69152  0.31035  1.0000
  C   C131      1.0  0.48780  0.69090  0.37110  1.0000
  C   C132      1.0  0.43690  0.65380  0.34320  1.0000
  H   H106      1.0  0.40941  0.63350  0.36921  1.0000
  H   H107      1.0  0.45437  0.61837  0.32104  1.0000
  H   H108      1.0  0.41379  0.68550  0.32136  1.0000
  C   C133      1.0  0.53810  0.15310  0.40540  1.0000
  C   C134      1.0  0.61730  0.23500  0.41480  1.0000
  H   H109      1.0  0.59939  0.26261  0.44324  1.0000
  H   H110      1.0  0.64464  0.20089  0.43080  1.0000
  C   C135      1.0  0.43050  0.08230  0.30730  1.0000
  C   C136      1.0  0.37770  0.06500  0.33460  1.0000
  H   H111      1.0  0.36916  0.08533  0.36751  1.0000
  C   C137      1.0  0.44180  0.05170  0.25930  1.0000
  H   H112      1.0  0.47731  0.06309  0.23970  1.0000
  C   C138      1.0  0.33760  0.01830  0.31390  1.0000
  H   H113      1.0  0.30124  0.00781  0.33257  1.0000
  C   C139      1.0  0.40050  0.00380  0.24000  1.0000
  H   H114      1.0  0.40855  0.98292  0.20715  1.0000
  C   C140      1.0  0.34900  0.98640  0.26690  1.0000
  C   C141      1.0  0.30480  0.93360  0.24610  1.0000
  H   H115      1.0  0.27785  0.95411  0.21987  1.0000
  H   H116      1.0  0.32801  0.89679  0.22995  1.0000
  H   H117      1.0  0.28018  0.91588  0.27513  1.0000
  S   S13       1.0  0.55538  0.12225  0.46857  1.0000
  O   O37       1.0  0.70280  0.30380  0.39354  1.0000
  O   O38       1.0  0.49750  0.17420  0.29939  1.0000
  O   O39       1.0  0.63270  0.28910  0.33230  1.0000
  N   N25       1.0  0.49150  0.11910  0.38004  1.0000
  N   N26       1.0  0.56850  0.20150  0.38490  1.0000
  C   C142      1.0  0.47670  0.13000  0.33010  1.0000
  C   C143      1.0  0.65270  0.27850  0.37810  1.0000
  C   C144      1.0  0.29180  0.49580  0.11620  1.0000
  C   C145      1.0  0.51140  0.36550  0.19010  1.0000
  H   H118      1.0  0.52285  0.33593  0.16042  1.0000
  H   H119      1.0  0.54480  0.39843  0.19563  1.0000
  C   C146      1.0  0.23580  0.46580  0.11220  1.0000
  H   H120      1.0  0.23043  0.42127  0.12503  1.0000
  C   C147      1.0  0.29790  0.56250  0.09900  1.0000
  H   H121      1.0  0.33606  0.58496  0.10280  1.0000
  C   C148      1.0  0.18660  0.49910  0.08970  1.0000
  H   H122      1.0  0.14836  0.47667  0.08662  1.0000
  C   C149      1.0  0.24900  0.59600  0.07670  1.0000
  H   H123      1.0  0.25403  0.64097  0.06474  1.0000
  C   C150      1.0  0.19250  0.56460  0.07150  1.0000
  C   C151      1.0  0.14050  0.59990  0.04540  1.0000
  H   H124      1.0  0.11022  0.61320  0.07184  1.0000
  H   H125      1.0  0.15569  0.64011  0.02728  1.0000
  H   H126      1.0  0.12127  0.56958  0.01987  1.0000
  S   S14       1.0  0.51295  0.43660  0.09096  1.0000
  O   O40       1.0  0.33060  0.41890  0.17722  1.0000
  O   O41       1.0  0.45160  0.32490  0.26205  1.0000
  O   O42       1.0  0.54860  0.29190  0.25406  1.0000
  N   N27       1.0  0.45460  0.40100  0.17789  1.0000
  N   N28       1.0  0.39900  0.46870  0.11817  1.0000
  C   C152      1.0  0.45060  0.43450  0.13460  1.0000
  C   C153      1.0  0.34390  0.45880  0.13950  1.0000
  C   C154      1.0  0.50250  0.32390  0.23900  1.0000
  C   C155      1.0  0.86910  0.30290  0.44660  1.0000
  C   C156      1.0  0.92000  0.26380  0.42210  1.0000
  C   C157      1.0  0.97360  0.24720  0.44790  1.0000
  H   H127      1.0  0.97933  0.26107  0.48326  1.0000
  C   C158      1.0  0.91240  0.24200  0.37030  1.0000
  H   H128      1.0  0.87554  0.25183  0.35206  1.0000
  C   C159      1.0  0.67810  0.40790  0.52470  1.0000
  C   C160      1.0  0.01950  0.21040  0.42290  1.0000
  H   H129      1.0  0.05570  0.19863  0.44134  1.0000
  C   C161      1.0  0.95860  0.20600  0.34560  1.0000
  H   H130      1.0  0.95303  0.19152  0.31035  1.0000
  C   C162      1.0  0.01220  0.19090  0.37110  1.0000
  C   C163      1.0  0.06310  0.15380  0.34320  1.0000
  H   H131      1.0  0.09059  0.13350  0.36921  1.0000
  H   H132      1.0  0.04563  0.11837  0.32104  1.0000
  H   H133      1.0  0.08621  0.18550  0.32136  1.0000
  S   S15       1.0  0.87424  0.47160  0.52677  1.0000
  O   O43       1.0  0.81560  0.28620  0.43348  1.0000
  O   O44       1.0  0.66830  0.35970  0.49317  1.0000
  O   O45       1.0  0.63810  0.43920  0.54870  1.0000
  N   N29       1.0  0.78590  0.38300  0.50570  1.0000
  N   N30       1.0  0.88590  0.35330  0.47899  1.0000
  C   C164      1.0  0.84350  0.39570  0.50250  1.0000
  C   C165      1.0  0.74460  0.43040  0.53110  1.0000
  H   H134      1.0  0.75476  0.43333  0.56894  1.0000
  H   H135      1.0  0.75002  0.47566  0.51553  1.0000
  H   H136      1.0  0.02269  0.93691  0.73970  1.0000
  C   C166      1.0  0.16240  0.98170  0.81390  1.0000
  H   H137      1.0  0.19876  0.99219  0.83257  1.0000
  C   C167      1.0  0.09950  0.99620  0.74000  1.0000
  H   H138      1.0  0.09145  0.01708  0.70715  1.0000
  C   C168      1.0  0.15100  0.01360  0.76690  1.0000
  C   C169      1.0  0.19520  0.06640  0.74610  1.0000
  H   H139      1.0  0.22215  0.04589  0.71987  1.0000
  H   H140      1.0  0.17199  0.10321  0.72995  1.0000
  H   H141      1.0  0.21982  0.08412  0.77513  1.0000
  S   S16       1.0  0.94462  0.87775  0.96857  1.0000
  O   O46       1.0  0.79720  0.69620  0.89354  1.0000
  O   O47       1.0  0.00250  0.82580  0.79939  1.0000
  O   O48       1.0  0.86730  0.71090  0.83230  1.0000
  N   N31       1.0  0.00850  0.88090  0.88004  1.0000
  N   N32       1.0  0.93150  0.79850  0.88490  1.0000
  C   C170      1.0  0.02330  0.87000  0.83010  1.0000
  C   C171      1.0  0.84730  0.72150  0.87810  1.0000
  C   C172      1.0  0.96190  0.84690  0.90540  1.0000
  C   C173      1.0  0.88270  0.76500  0.91480  1.0000
  H   H142      1.0  0.90061  0.73739  0.94324  1.0000
  H   H143      1.0  0.85536  0.79911  0.93080  1.0000
  C   C174      1.0  0.06950  0.91770  0.80730  1.0000
  C   C175      1.0  0.12230  0.93500  0.83460  1.0000
  H   H144      1.0  0.13084  0.91467  0.86751  1.0000
  C   C176      1.0  0.05820  0.94830  0.75930  1.0000
  S   S17       1.0  0.98705  0.56340  0.59096  1.0000
  O   O49       1.0  0.16940  0.58110  0.67722  1.0000
  O   O50       1.0  0.04840  0.67510  0.76205  1.0000
  O   O51       1.0  0.95140  0.70810  0.75406  1.0000
  N   N33       1.0  0.04540  0.59900  0.67789  1.0000
  N   N34       1.0  0.10100  0.53130  0.61817  1.0000
  C   C177      1.0  0.04940  0.56550  0.63460  1.0000
  C   C178      1.0  0.15610  0.54120  0.63950  1.0000
  C   C179      1.0  0.99750  0.67610  0.73900  1.0000
  C   C180      1.0  0.20820  0.50420  0.61620  1.0000
  C   C181      1.0  0.98860  0.63450  0.69010  1.0000
  H   H145      1.0  0.97715  0.66407  0.66042  1.0000
  H   H146      1.0  0.95520  0.60157  0.69563  1.0000
  C   C182      1.0  0.26420  0.53420  0.61220  1.0000
  H   H147      1.0  0.26957  0.57873  0.62503  1.0000
  C   C183      1.0  0.20210  0.43750  0.59900  1.0000
  H   H148      1.0  0.16394  0.41504  0.60280  1.0000
  C   C184      1.0  0.31340  0.50090  0.58970  1.0000
  H   H149      1.0  0.35164  0.52333  0.58662  1.0000
  C   C185      1.0  0.25100  0.40400  0.57670  1.0000
  H   H150      1.0  0.24597  0.35903  0.56474  1.0000
  C   C186      1.0  0.30750  0.43540  0.57150  1.0000
  C   C187      1.0  0.35950  0.40010  0.54540  1.0000
  H   H151      1.0  0.38978  0.38680  0.57184  1.0000
  H   H152      1.0  0.34431  0.35989  0.52728  1.0000
  H   H153      1.0  0.37873  0.43042  0.51987  1.0000
  S   S18       1.0  0.62576  0.52840  0.02677  1.0000
  O   O52       1.0  0.68440  0.71380  0.93348  1.0000
  O   O53       1.0  0.83170  0.64030  0.99317  1.0000
  O   O54       1.0  0.86190  0.56080  0.04870  1.0000
  N   N35       1.0  0.71410  0.61700  0.00570  1.0000
  N   N36       1.0  0.61410  0.64670  0.97899  1.0000
  C   C188      1.0  0.65650  0.60430  0.00250  1.0000
  C   C189      1.0  0.75540  0.56960  0.03110  1.0000
  H   H154      1.0  0.74524  0.56667  0.06894  1.0000
  H   H155      1.0  0.74998  0.52434  0.01553  1.0000
  C   C190      1.0  0.63090  0.69710  0.94660  1.0000
  C   C191      1.0  0.58000  0.73620  0.92210  1.0000
  C   C192      1.0  0.52640  0.75280  0.94790  1.0000
  H   H156      1.0  0.52067  0.73893  0.98326  1.0000
  C   C193      1.0  0.58760  0.75800  0.87030  1.0000
  H   H157      1.0  0.62446  0.74817  0.85206  1.0000
  C   C194      1.0  0.82190  0.59210  0.02470  1.0000
  C   C195      1.0  0.48050  0.78960  0.92290  1.0000
  H   H158      1.0  0.44430  0.80137  0.94134  1.0000
  C   C196      1.0  0.54140  0.79400  0.84560  1.0000
  H   H159      1.0  0.54697  0.80848  0.81035  1.0000
  C   C197      1.0  0.48780  0.80910  0.87110  1.0000
  C   C198      1.0  0.43690  0.84620  0.84320  1.0000
  H   H160      1.0  0.40941  0.86650  0.86921  1.0000
  H   H161      1.0  0.45437  0.88163  0.82104  1.0000
  H   H162      1.0  0.41379  0.81450  0.82136  1.0000
  S   S19       1.0  0.44462  0.62225  0.03143  1.0000
  O   O55       1.0  0.29720  0.80380  0.10646  1.0000
  O   O56       1.0  0.50250  0.67420  0.20061  1.0000
  O   O57       1.0  0.36730  0.78910  0.16770  1.0000
  N   N37       1.0  0.50850  0.61910  0.11996  1.0000
  N   N38       1.0  0.43150  0.70150  0.11510  1.0000
  C   C199      1.0  0.52330  0.63000  0.16990  1.0000
  C   C200      1.0  0.34730  0.77850  0.12190  1.0000
  C   C201      1.0  0.46190  0.65310  0.09460  1.0000
  C   C202      1.0  0.38270  0.73500  0.08520  1.0000
  H   H163      1.0  0.40061  0.76261  0.05676  1.0000
  H   H164      1.0  0.35536  0.70089  0.06920  1.0000
  C   C203      1.0  0.56950  0.58230  0.19270  1.0000
  C   C204      1.0  0.62230  0.56500  0.16540  1.0000
  H   H165      1.0  0.63084  0.58533  0.13249  1.0000
  C   C205      1.0  0.55820  0.55170  0.24070  1.0000
  H   H166      1.0  0.52269  0.56309  0.26030  1.0000
  C   C206      1.0  0.66240  0.51830  0.18610  1.0000
  H   H167      1.0  0.69876  0.50781  0.16743  1.0000
  C   C207      1.0  0.59950  0.50380  0.26000  1.0000
  H   H168      1.0  0.59145  0.48292  0.29285  1.0000
  C   C208      1.0  0.65100  0.48640  0.23310  1.0000
  C   C209      1.0  0.69520  0.43360  0.25390  1.0000
  H   H169      1.0  0.72215  0.45411  0.28013  1.0000
  H   H170      1.0  0.67199  0.39679  0.27005  1.0000
  H   H171      1.0  0.71982  0.41588  0.22487  1.0000
  S   S20       1.0  0.48705  0.93660  0.40904  1.0000
  O   O58       1.0  0.66940  0.91890  0.32278  1.0000
  O   O59       1.0  0.54840  0.82490  0.23795  1.0000
  O   O60       1.0  0.45140  0.79190  0.24594  1.0000
  N   N39       1.0  0.54540  0.90100  0.32211  1.0000
  N   N40       1.0  0.60100  0.96870  0.38183  1.0000
  C   C210      1.0  0.54940  0.93450  0.36540  1.0000
  C   C211      1.0  0.65610  0.95880  0.36050  1.0000
  C   C212      1.0  0.49750  0.82390  0.26100  1.0000
  C   C213      1.0  0.70820  0.99580  0.38380  1.0000
  C   C214      1.0  0.48860  0.86550  0.30990  1.0000
  H   H172      1.0  0.47715  0.83593  0.33958  1.0000
  H   H173      1.0  0.45520  0.89843  0.30437  1.0000
  C   C215      1.0  0.76420  0.96580  0.38780  1.0000
  H   H174      1.0  0.76957  0.92127  0.37497  1.0000
  C   C216      1.0  0.70210  0.06250  0.40100  1.0000
  H   H175      1.0  0.66394  0.08496  0.39720  1.0000
  C   C217      1.0  0.81340  0.99910  0.41030  1.0000
  H   H176      1.0  0.85164  0.97667  0.41338  1.0000
  C   C218      1.0  0.75100  0.09600  0.42330  1.0000
  H   H177      1.0  0.74597  0.14097  0.43526  1.0000
  C   C219      1.0  0.80750  0.06460  0.42850  1.0000
  C   C220      1.0  0.85950  0.09990  0.45460  1.0000
  H   H178      1.0  0.88978  0.11320  0.42816  1.0000
  H   H179      1.0  0.84431  0.14011  0.47272  1.0000
  H   H180      1.0  0.87873  0.06958  0.48013  1.0000
  S   S21       1.0  0.12576  0.97160  0.97323  1.0000
  O   O61       1.0  0.18440  0.78620  0.06652  1.0000
  O   O62       1.0  0.33170  0.85970  0.00683  1.0000
  O   O63       1.0  0.36190  0.93920  0.95130  1.0000
  N   N41       1.0  0.21410  0.88300  0.99430  1.0000
  N   N42       1.0  0.11410  0.85330  0.02101  1.0000
  C   C221      1.0  0.15650  0.89570  0.99750  1.0000
  C   C222      1.0  0.25540  0.93040  0.96890  1.0000
  H   H181      1.0  0.24524  0.93333  0.93106  1.0000
  H   H182      1.0  0.24998  0.97566  0.98447  1.0000
  C   C223      1.0  0.13090  0.80290  0.05340  1.0000
  C   C224      1.0  0.08000  0.76380  0.07790  1.0000
  C   C225      1.0  0.02640  0.74720  0.05210  1.0000
  H   H183      1.0  0.02067  0.76107  0.01674  1.0000
  C   C226      1.0  0.08760  0.74200  0.12970  1.0000
  H   H184      1.0  0.12446  0.75183  0.14794  1.0000
  C   C227      1.0  0.32190  0.90790  0.97530  1.0000
  C   C228      1.0  0.98050  0.71040  0.07710  1.0000
  H   H185      1.0  0.94430  0.69863  0.05866  1.0000
  C   C229      1.0  0.04140  0.70600  0.15440  1.0000
  H   H186      1.0  0.04697  0.69152  0.18965  1.0000
  C   C230      1.0  0.98780  0.69090  0.12890  1.0000
  C   C231      1.0  0.93690  0.65380  0.15680  1.0000
  H   H187      1.0  0.90941  0.63350  0.13079  1.0000
  H   H188      1.0  0.95437  0.61837  0.17896  1.0000
  H   H189      1.0  0.91379  0.68550  0.17864  1.0000
  C   C232      1.0  0.97670  0.37000  0.66990  1.0000
  C   C233      1.0  0.15270  0.22150  0.62190  1.0000
  C   C234      1.0  0.03810  0.34690  0.59460  1.0000
  C   C235      1.0  0.11730  0.26500  0.58520  1.0000
  H   H190      1.0  0.09939  0.23739  0.55676  1.0000
  H   H191      1.0  0.14464  0.29911  0.56920  1.0000
  C   C236      1.0  0.93050  0.41770  0.69270  1.0000
  C   C237      1.0  0.87770  0.43500  0.66540  1.0000
  H   H192      1.0  0.86916  0.41467  0.63249  1.0000
  C   C238      1.0  0.94180  0.44830  0.74070  1.0000
  H   H193      1.0  0.97731  0.43691  0.76030  1.0000
  C   C239      1.0  0.83760  0.48170  0.68610  1.0000
  H   H194      1.0  0.80124  0.49219  0.66743  1.0000
  C   C240      1.0  0.90050  0.49620  0.76000  1.0000
  H   H195      1.0  0.90855  0.51708  0.79285  1.0000
  C   C241      1.0  0.84900  0.51360  0.73310  1.0000
  C   C242      1.0  0.80480  0.56640  0.75390  1.0000
  H   H196      1.0  0.77785  0.54589  0.78013  1.0000
  H   H197      1.0  0.82801  0.60321  0.77005  1.0000
  H   H198      1.0  0.78018  0.58412  0.72487  1.0000
  S   S22       1.0  0.05538  0.37775  0.53143  1.0000
  O   O64       1.0  0.20280  0.19620  0.60646  1.0000
  O   O65       1.0  0.99750  0.32580  0.70061  1.0000
  O   O66       1.0  0.13270  0.21090  0.66770  1.0000
  N   N43       1.0  0.99150  0.38090  0.61996  1.0000
  N   N44       1.0  0.06850  0.29850  0.61510  1.0000
  C   C243      1.0  0.79180  0.00420  0.88380  1.0000
  C   C244      1.0  0.01140  0.13450  0.80990  1.0000
  H   H199      1.0  0.02285  0.16407  0.83958  1.0000
  H   H200      1.0  0.04480  0.10157  0.80437  1.0000
  C   C245      1.0  0.73580  0.03420  0.88780  1.0000
  H   H201      1.0  0.73043  0.07873  0.87497  1.0000
  C   C246      1.0  0.79790  0.93750  0.90100  1.0000
  H   H202      1.0  0.83606  0.91504  0.89720  1.0000
  C   C247      1.0  0.68660  0.00090  0.91030  1.0000
  H   H203      1.0  0.64836  0.02333  0.91338  1.0000
  C   C248      1.0  0.74900  0.90400  0.92330  1.0000
  H   H204      1.0  0.75403  0.85903  0.93526  1.0000
  C   C249      1.0  0.69250  0.93540  0.92850  1.0000
  C   C250      1.0  0.64050  0.90010  0.95460  1.0000
  H   H205      1.0  0.61022  0.88680  0.92816  1.0000
  H   H206      1.0  0.65569  0.85989  0.97272  1.0000
  H   H207      1.0  0.62127  0.93042  0.98013  1.0000
  S   S23       1.0  0.01295  0.06340  0.90904  1.0000
  O   O67       1.0  0.83060  0.08110  0.82278  1.0000
  O   O68       1.0  0.95160  0.17510  0.73795  1.0000
  O   O69       1.0  0.04860  0.20810  0.74594  1.0000
  N   N45       1.0  0.95460  0.09900  0.82211  1.0000
  N   N46       1.0  0.89900  0.03130  0.88183  1.0000
  C   C251      1.0  0.95060  0.06550  0.86540  1.0000
  C   C252      1.0  0.84390  0.04120  0.86050  1.0000
  C   C253      1.0  0.00250  0.17610  0.76100  1.0000
  C   C254      1.0  0.24460  0.06960  0.46890  1.0000
  H   H208      1.0  0.25476  0.06667  0.43106  1.0000
  H   H209      1.0  0.25002  0.02434  0.48447  1.0000
  C   C255      1.0  0.36910  0.19710  0.55340  1.0000
  C   C256      1.0  0.42000  0.23620  0.57790  1.0000
  C   C257      1.0  0.47360  0.25280  0.55210  1.0000
  H   H210      1.0  0.47933  0.23893  0.51674  1.0000
  C   C258      1.0  0.41240  0.25800  0.62970  1.0000
  H   H211      1.0  0.37554  0.24817  0.64794  1.0000
  C   C259      1.0  0.17810  0.09210  0.47530  1.0000
  C   C260      1.0  0.51950  0.28960  0.57710  1.0000
  H   H212      1.0  0.55570  0.30137  0.55866  1.0000
  C   C261      1.0  0.45860  0.29400  0.65440  1.0000
  H   H213      1.0  0.45303  0.30848  0.68965  1.0000
  C   C262      1.0  0.51220  0.30910  0.62890  1.0000
  C   C263      1.0  0.56310  0.34620  0.65680  1.0000
  H   H214      1.0  0.59059  0.36650  0.63079  1.0000
  H   H215      1.0  0.54563  0.38163  0.67896  1.0000
  H   H216      1.0  0.58621  0.31450  0.67864  1.0000
  S   S24       1.0  0.37424  0.02840  0.47323  1.0000
  O   O70       1.0  0.31560  0.21380  0.56652  1.0000
  O   O71       1.0  0.16830  0.14030  0.50683  1.0000
  O   O72       1.0  0.13810  0.06080  0.45130  1.0000
  N   N47       1.0  0.28590  0.11700  0.49430  1.0000
  N   N48       1.0  0.38590  0.14670  0.52101  1.0000
  C   C264      1.0  0.34350  0.10430  0.49750  1.0000
  Cu  Cu1       1.0  0.58316  0.48562  0.95281  1.0000
  Cu  Cu2       1.0  0.02897  0.60712  0.51705  1.0000
  Cu  Cu3       1.0  0.61117  0.62166  0.77564  1.0000
  Cu  Cu4       1.0  0.25872  0.67962  0.53798  1.0000
  Cu  Cu5       1.0  0.44567  0.75590  0.68083  1.0000
  Cu  Cu6       1.0  0.46061  0.45639  0.92655  1.0000
  Cu  Cu7       1.0  0.08316  0.01438  0.04719  1.0000
  Cu  Cu8       1.0  0.52897  0.89288  0.48295  1.0000
  Cu  Cu9       1.0  0.11117  0.87834  0.22436  1.0000
  Cu  Cu10      1.0  0.75872  0.82038  0.46202  1.0000
  Cu  Cu11      1.0  0.94567  0.74410  0.31917  1.0000
  Cu  Cu12      1.0  0.96061  0.04361  0.07345  1.0000
  Cu  Cu13      1.0  0.58316  0.01438  0.45281  1.0000
  Cu  Cu14      1.0  0.02897  0.89288  0.01705  1.0000
  Cu  Cu15      1.0  0.61117  0.87834  0.27564  1.0000
  Cu  Cu16      1.0  0.25872  0.82038  0.03798  1.0000
  Cu  Cu17      1.0  0.44567  0.74410  0.18083  1.0000
  Cu  Cu18      1.0  0.46061  0.04361  0.42655  1.0000
  Cu  Cu19      1.0  0.41684  0.98562  0.54719  1.0000
  Cu  Cu20      1.0  0.97103  0.10712  0.98295  1.0000
  Cu  Cu21      1.0  0.38883  0.12166  0.72436  1.0000
  Cu  Cu22      1.0  0.74128  0.17962  0.96202  1.0000
  Cu  Cu23      1.0  0.55433  0.25590  0.81917  1.0000
  Cu  Cu24      1.0  0.53939  0.95639  0.57345  1.0000
  Cu  Cu25      1.0  0.08316  0.48562  0.54719  1.0000
  Cu  Cu26      1.0  0.52897  0.60712  0.98295  1.0000
  Cu  Cu27      1.0  0.11117  0.62166  0.72436  1.0000
  Cu  Cu28      1.0  0.75872  0.67962  0.96202  1.0000
  Cu  Cu29      1.0  0.94567  0.75590  0.81917  1.0000
  Cu  Cu30      1.0  0.96061  0.45639  0.57345  1.0000
  Cu  Cu31      1.0  0.91684  0.51438  0.45281  1.0000
  Cu  Cu32      1.0  0.47103  0.39288  0.01705  1.0000
  Cu  Cu33      1.0  0.88883  0.37834  0.27564  1.0000
  Cu  Cu34      1.0  0.24128  0.32038  0.03798  1.0000
  Cu  Cu35      1.0  0.05433  0.24410  0.18083  1.0000
  Cu  Cu36      1.0  0.03939  0.54361  0.42655  1.0000
  Cu  Cu37      1.0  0.41684  0.51438  0.04719  1.0000
  Cu  Cu38      1.0  0.97103  0.39288  0.48295  1.0000
  Cu  Cu39      1.0  0.38883  0.37834  0.22436  1.0000
  Cu  Cu40      1.0  0.74128  0.32038  0.46202  1.0000
  Cu  Cu41      1.0  0.55433  0.24410  0.31917  1.0000
  Cu  Cu42      1.0  0.53939  0.54361  0.07345  1.0000
  Cu  Cu43      1.0  0.91684  0.98562  0.95281  1.0000
  Cu  Cu44      1.0  0.47103  0.10712  0.51705  1.0000
  Cu  Cu45      1.0  0.88883  0.12166  0.77564  1.0000
  Cu  Cu46      1.0  0.24128  0.17962  0.53798  1.0000
  Cu  Cu47      1.0  0.05433  0.25590  0.68083  1.0000
  Cu  Cu48      1.0  0.03939  0.95639  0.92655  1.0000
