data_image0
_chemical_formula_structural       O6N12C2H2C3HC2HC2HC2H2C3H2CO6N12C2H2C3HC2HC2HC2H2C3H2C3H2C3H2CO6N12C2H2C3HC2HC2HO6N12C2H2C3HC2HC2HC2H2C3H2CO6N12C2H2C3HC2HC2HC2H2C3H2C4HC2HC2HC2H2C3H2CO6N12C2H2O6N12C2H2C3HC2HC2HC2H2C3H2CO6N12C2H2C3HC2HC2HC2H2C3H2CBa8O6N12C2H2C3HC2HC2HC2H2C3H2CO6N12C2H2C3HC2HC2HC2H2C3H2C3H2C3H2CO6N12C2H2C3HC2HC2HO6N12C2H2C3HC2HC2HC2H2C3H2CO6N12C2H2C3HC2HC2HC2H2C3H2C4HC2HC2HC2H2C3H2CO6N12C2H2O6N12C2H2C3HC2HC2HC2H2C3H2CO6N12C2H2C3HC2HC2HC2H2C3H2CBa8
_chemical_formula_sum              "O96 N192 C240 H144 Ba16"
_cell_length_a       23.771
_cell_length_b       15.77
_cell_length_c       29.986
_cell_angle_alpha    90
_cell_angle_beta     97.881
_cell_angle_gamma    90

_space_group_name_H-M_alt    "P 1"
_space_group_IT_number       1

loop_
  _space_group_symop_operation_xyz
  'x, y, z'

loop_
  _atom_site_type_symbol
  _atom_site_label
  _atom_site_symmetry_multiplicity
  _atom_site_fract_x
  _atom_site_fract_y
  _atom_site_fract_z
  _atom_site_occupancy
  O   O1        1.0  0.25708  0.29245  0.80965  1.0000
  O   O2        1.0  0.27684  0.18140  0.85507  1.0000
  O   O3        1.0  0.68615  0.47395  0.21730  1.0000
  O   O4        1.0  0.63063  0.08150  0.19207  1.0000
  O   O5        1.0  0.68228  0.21300  0.76429  1.0000
  O   O6        1.0  0.69270  0.25470  0.83525  1.0000
  N   N1        1.0  0.39301  0.25005  0.91626  1.0000
  N   N2        1.0  0.34045  0.27615  0.91855  1.0000
  N   N3        1.0  0.32104  0.25335  0.95643  1.0000
  N   N4        1.0  0.36268  0.21070  0.98000  1.0000
  N   N5        1.0  0.49864  0.05410  0.09945  1.0000
  N   N6        1.0  0.52239  0.01060  0.13486  1.0000
  N   N7        1.0  0.57257  0.48770  0.12546  1.0000
  N   N8        1.0  0.58453  0.01430  0.08557  1.0000
  N   N9        1.0  0.58245  0.14105  0.87718  1.0000
  N   N10       1.0  0.62946  0.12165  0.86085  1.0000
  N   N11       1.0  0.66600  0.07850  0.89010  1.0000
  N   N12       1.0  0.64380  0.07700  0.92830  1.0000
  C   C1        1.0  0.27789  0.25860  0.84602  1.0000
  C   C2        1.0  0.30604  0.31995  0.88183  1.0000
  H   H1        1.0  0.32983  0.35925  0.86798  1.0000
  H   H2        1.0  0.27690  0.35262  0.89379  1.0000
  C   C3        1.0  0.40581  0.20940  0.95510  1.0000
  C   C4        1.0  0.46078  0.16880  0.96923  1.0000
  C   C5        1.0  0.50110  0.16620  0.93954  1.0000
  H   H3        1.0  0.49304  0.19012  0.91103  1.0000
  C   C6        1.0  0.55370  0.12755  0.95280  1.0000
  C   C7        1.0  0.56532  0.09235  0.99528  1.0000
  H   H4        1.0  0.60035  0.06675  0.00402  1.0000
  C   C8        1.0  0.52559  0.09460  0.02506  1.0000
  C   C9        1.0  0.47290  0.13260  0.01163  1.0000
  H   H5        1.0  0.44578  0.13364  0.03123  1.0000
  C   C10       1.0  0.53666  0.05515  0.06960  1.0000
  C   C11       1.0  0.61400  0.44415  0.15832  1.0000
  H   H6        1.0  0.64107  0.41429  0.14258  1.0000
  H   H7        1.0  0.59454  0.40259  0.17449  1.0000
  C   C12       1.0  0.64550  0.00605  0.19183  1.0000
  C   C13       1.0  0.59420  0.12130  0.92031  1.0000
  C   C14       1.0  0.63680  0.13115  0.81392  1.0000
  H   H8        1.0  0.59960  0.13823  0.79642  1.0000
  H   H9        1.0  0.65321  0.07954  0.80379  1.0000
  C   C15       1.0  0.67380  0.20630  0.80456  1.0000
  O   O7        1.0  0.75708  0.04245  0.80965  1.0000
  O   O8        1.0  0.77684  0.43140  0.85507  1.0000
  O   O9        1.0  0.18615  0.22395  0.21730  1.0000
  O   O10       1.0  0.13063  0.33150  0.19207  1.0000
  O   O11       1.0  0.18228  0.46300  0.76429  1.0000
  O   O12       1.0  0.19270  0.00470  0.83525  1.0000
  N   N13       1.0  0.89301  0.00005  0.91626  1.0000
  N   N14       1.0  0.84045  0.02615  0.91855  1.0000
  N   N15       1.0  0.82104  0.00335  0.95643  1.0000
  N   N16       1.0  0.86268  0.46070  0.98000  1.0000
  N   N17       1.0  0.99864  0.30410  0.09945  1.0000
  N   N18       1.0  0.02239  0.26060  0.13486  1.0000
  N   N19       1.0  0.07257  0.23770  0.12546  1.0000
  N   N20       1.0  0.08453  0.26430  0.08557  1.0000
  N   N21       1.0  0.08245  0.39105  0.87718  1.0000
  N   N22       1.0  0.12946  0.37165  0.86085  1.0000
  N   N23       1.0  0.16600  0.32850  0.89010  1.0000
  N   N24       1.0  0.14380  0.32700  0.92830  1.0000
  C   C16       1.0  0.77789  0.00860  0.84602  1.0000
  C   C17       1.0  0.80604  0.06995  0.88183  1.0000
  H   H10       1.0  0.82983  0.10925  0.86798  1.0000
  H   H11       1.0  0.77690  0.10262  0.89379  1.0000
  C   C18       1.0  0.90581  0.45940  0.95510  1.0000
  C   C19       1.0  0.96078  0.41880  0.96923  1.0000
  C   C20       1.0  0.00110  0.41620  0.93954  1.0000
  H   H12       1.0  0.99304  0.44012  0.91103  1.0000
  C   C21       1.0  0.05370  0.37755  0.95280  1.0000
  C   C22       1.0  0.06532  0.34235  0.99528  1.0000
  H   H13       1.0  0.10035  0.31675  0.00402  1.0000
  C   C23       1.0  0.02559  0.34460  0.02506  1.0000
  C   C24       1.0  0.97290  0.38260  0.01163  1.0000
  H   H14       1.0  0.94578  0.38364  0.03123  1.0000
  C   C25       1.0  0.03666  0.30515  0.06960  1.0000
  C   C26       1.0  0.11400  0.19415  0.15832  1.0000
  H   H15       1.0  0.14107  0.16428  0.14258  1.0000
  H   H16       1.0  0.09454  0.15258  0.17449  1.0000
  C   C27       1.0  0.14550  0.25605  0.19183  1.0000
  C   C28       1.0  0.09420  0.37130  0.92031  1.0000
  C   C29       1.0  0.13680  0.38115  0.81392  1.0000
  H   H17       1.0  0.09960  0.38823  0.79642  1.0000
  H   H18       1.0  0.15321  0.32954  0.80379  1.0000
  C   C30       1.0  0.17380  0.45630  0.80456  1.0000
  C   C31       1.0  0.46334  0.05515  0.43040  1.0000
  C   C32       1.0  0.38600  0.44415  0.34168  1.0000
  H   H19       1.0  0.35893  0.41429  0.35742  1.0000
  H   H20       1.0  0.40546  0.40259  0.32551  1.0000
  C   C33       1.0  0.35450  0.00605  0.30817  1.0000
  C   C34       1.0  0.40580  0.12130  0.57969  1.0000
  C   C35       1.0  0.36320  0.13115  0.68608  1.0000
  H   H21       1.0  0.40040  0.13823  0.70358  1.0000
  H   H22       1.0  0.34679  0.07954  0.69621  1.0000
  C   C36       1.0  0.32620  0.20630  0.69544  1.0000
  O   O13       1.0  0.74292  0.29245  0.69035  1.0000
  O   O14       1.0  0.72316  0.18140  0.64493  1.0000
  O   O15       1.0  0.31385  0.47395  0.28270  1.0000
  O   O16       1.0  0.36937  0.08150  0.30793  1.0000
  O   O17       1.0  0.31772  0.21300  0.73571  1.0000
  O   O18       1.0  0.30730  0.25470  0.66475  1.0000
  N   N25       1.0  0.60699  0.25005  0.58374  1.0000
  N   N26       1.0  0.65955  0.27615  0.58145  1.0000
  N   N27       1.0  0.67896  0.25335  0.54357  1.0000
  N   N28       1.0  0.63732  0.21070  0.52000  1.0000
  N   N29       1.0  0.50136  0.05410  0.40055  1.0000
  N   N30       1.0  0.47761  0.01060  0.36514  1.0000
  N   N31       1.0  0.42743  0.48770  0.37454  1.0000
  N   N32       1.0  0.41547  0.01430  0.41443  1.0000
  N   N33       1.0  0.41755  0.14105  0.62282  1.0000
  N   N34       1.0  0.37054  0.12165  0.63915  1.0000
  N   N35       1.0  0.33400  0.07850  0.60990  1.0000
  N   N36       1.0  0.35620  0.07700  0.57170  1.0000
  C   C37       1.0  0.72211  0.25860  0.65398  1.0000
  C   C38       1.0  0.69396  0.31995  0.61817  1.0000
  H   H23       1.0  0.67017  0.35925  0.63202  1.0000
  H   H24       1.0  0.72310  0.35262  0.60621  1.0000
  C   C39       1.0  0.59419  0.20940  0.54490  1.0000
  C   C40       1.0  0.53922  0.16880  0.53077  1.0000
  C   C41       1.0  0.49890  0.16620  0.56046  1.0000
  H   H25       1.0  0.50696  0.19012  0.58897  1.0000
  C   C42       1.0  0.44630  0.12755  0.54720  1.0000
  C   C43       1.0  0.43468  0.09235  0.50472  1.0000
  H   H26       1.0  0.39965  0.06675  0.49598  1.0000
  C   C44       1.0  0.47441  0.09460  0.47494  1.0000
  C   C45       1.0  0.52710  0.13260  0.48837  1.0000
  H   H27       1.0  0.55422  0.13364  0.46877  1.0000
  O   O19       1.0  0.24292  0.04245  0.69035  1.0000
  O   O20       1.0  0.22316  0.43140  0.64493  1.0000
  O   O21       1.0  0.81385  0.22395  0.28270  1.0000
  O   O22       1.0  0.86937  0.33150  0.30793  1.0000
  O   O23       1.0  0.81772  0.46300  0.73571  1.0000
  O   O24       1.0  0.80730  0.00470  0.66475  1.0000
  N   N37       1.0  0.10699  0.00005  0.58374  1.0000
  N   N38       1.0  0.15955  0.02615  0.58145  1.0000
  N   N39       1.0  0.17896  0.00335  0.54357  1.0000
  N   N40       1.0  0.13732  0.46070  0.52000  1.0000
  N   N41       1.0  0.00136  0.30410  0.40055  1.0000
  N   N42       1.0  0.97761  0.26060  0.36514  1.0000
  N   N43       1.0  0.92743  0.23770  0.37454  1.0000
  N   N44       1.0  0.91547  0.26430  0.41443  1.0000
  N   N45       1.0  0.91755  0.39105  0.62282  1.0000
  N   N46       1.0  0.87054  0.37165  0.63915  1.0000
  N   N47       1.0  0.83400  0.32850  0.60990  1.0000
  N   N48       1.0  0.85620  0.32700  0.57170  1.0000
  C   C46       1.0  0.22211  0.00860  0.65398  1.0000
  C   C47       1.0  0.19396  0.06995  0.61817  1.0000
  H   H28       1.0  0.17017  0.10925  0.63202  1.0000
  H   H29       1.0  0.22310  0.10262  0.60621  1.0000
  C   C48       1.0  0.09419  0.45940  0.54490  1.0000
  C   C49       1.0  0.03922  0.41880  0.53077  1.0000
  C   C50       1.0  0.99890  0.41620  0.56046  1.0000
  H   H30       1.0  0.00696  0.44012  0.58897  1.0000
  C   C51       1.0  0.94630  0.37755  0.54720  1.0000
  C   C52       1.0  0.93468  0.34235  0.50472  1.0000
  H   H31       1.0  0.89965  0.31675  0.49598  1.0000
  C   C53       1.0  0.97441  0.34460  0.47494  1.0000
  C   C54       1.0  0.02710  0.38260  0.48837  1.0000
  H   H32       1.0  0.05422  0.38364  0.46877  1.0000
  C   C55       1.0  0.96334  0.30515  0.43040  1.0000
  C   C56       1.0  0.88600  0.19415  0.34168  1.0000
  H   H33       1.0  0.85893  0.16428  0.35742  1.0000
  H   H34       1.0  0.90546  0.15258  0.32551  1.0000
  C   C57       1.0  0.85450  0.25605  0.30817  1.0000
  C   C58       1.0  0.90580  0.37130  0.57969  1.0000
  C   C59       1.0  0.86320  0.38115  0.68608  1.0000
  H   H35       1.0  0.90040  0.38823  0.70358  1.0000
  H   H36       1.0  0.84679  0.32954  0.69621  1.0000
  C   C60       1.0  0.82620  0.45630  0.69544  1.0000
  O   O25       1.0  0.74292  0.20755  0.19035  1.0000
  O   O26       1.0  0.72316  0.31860  0.14493  1.0000
  O   O27       1.0  0.31385  0.02605  0.78270  1.0000
  O   O28       1.0  0.36937  0.41850  0.80793  1.0000
  O   O29       1.0  0.31772  0.28700  0.23571  1.0000
  O   O30       1.0  0.30730  0.24530  0.16475  1.0000
  N   N49       1.0  0.60699  0.24995  0.08374  1.0000
  N   N50       1.0  0.65955  0.22385  0.08145  1.0000
  N   N51       1.0  0.67896  0.24665  0.04357  1.0000
  N   N52       1.0  0.63732  0.28930  0.02000  1.0000
  N   N53       1.0  0.50136  0.44590  0.90055  1.0000
  N   N54       1.0  0.47761  0.48940  0.86514  1.0000
  N   N55       1.0  0.42743  0.01230  0.87454  1.0000
  N   N56       1.0  0.41547  0.48570  0.91443  1.0000
  N   N57       1.0  0.41755  0.35895  0.12282  1.0000
  N   N58       1.0  0.37054  0.37835  0.13915  1.0000
  N   N59       1.0  0.33400  0.42150  0.10990  1.0000
  N   N60       1.0  0.35620  0.42300  0.07170  1.0000
  C   C61       1.0  0.72211  0.24140  0.15398  1.0000
  C   C62       1.0  0.69396  0.18005  0.11817  1.0000
  H   H37       1.0  0.67017  0.14075  0.13202  1.0000
  H   H38       1.0  0.72310  0.14738  0.10621  1.0000
  C   C63       1.0  0.59419  0.29060  0.04490  1.0000
  C   C64       1.0  0.53922  0.33120  0.03077  1.0000
  C   C65       1.0  0.49890  0.33380  0.06046  1.0000
  H   H39       1.0  0.50696  0.30988  0.08897  1.0000
  C   C66       1.0  0.44630  0.37245  0.04720  1.0000
  C   C67       1.0  0.43468  0.40765  0.00472  1.0000
  H   H40       1.0  0.39965  0.43325  0.99598  1.0000
  C   C68       1.0  0.47441  0.40540  0.97494  1.0000
  C   C69       1.0  0.52710  0.36740  0.98837  1.0000
  H   H41       1.0  0.55422  0.36636  0.96877  1.0000
  C   C70       1.0  0.46334  0.44485  0.93040  1.0000
  C   C71       1.0  0.38600  0.05585  0.84168  1.0000
  H   H42       1.0  0.35893  0.08572  0.85742  1.0000
  H   H43       1.0  0.40546  0.09742  0.82551  1.0000
  C   C72       1.0  0.35450  0.49395  0.80817  1.0000
  C   C73       1.0  0.40580  0.37870  0.07969  1.0000
  C   C74       1.0  0.36320  0.36885  0.18608  1.0000
  H   H44       1.0  0.40040  0.36178  0.20358  1.0000
  H   H45       1.0  0.34679  0.42046  0.19621  1.0000
  C   C75       1.0  0.32620  0.29370  0.19544  1.0000
  C   C76       1.0  0.09419  0.04060  0.04490  1.0000
  C   C77       1.0  0.03922  0.08120  0.03077  1.0000
  C   C78       1.0  0.99890  0.08380  0.06046  1.0000
  H   H46       1.0  0.00696  0.05988  0.08897  1.0000
  C   C79       1.0  0.94630  0.12245  0.04720  1.0000
  C   C80       1.0  0.93468  0.15765  0.00472  1.0000
  H   H47       1.0  0.89965  0.18325  0.99598  1.0000
  C   C81       1.0  0.97441  0.15540  0.97494  1.0000
  C   C82       1.0  0.02710  0.11740  0.98837  1.0000
  H   H48       1.0  0.05422  0.11636  0.96877  1.0000
  C   C83       1.0  0.96334  0.19485  0.93040  1.0000
  C   C84       1.0  0.88600  0.30585  0.84168  1.0000
  H   H49       1.0  0.85893  0.33571  0.85742  1.0000
  H   H50       1.0  0.90546  0.34742  0.82551  1.0000
  C   C85       1.0  0.85450  0.24395  0.80817  1.0000
  C   C86       1.0  0.90580  0.12870  0.07969  1.0000
  C   C87       1.0  0.86320  0.11885  0.18608  1.0000
  H   H51       1.0  0.90040  0.11178  0.20358  1.0000
  H   H52       1.0  0.84679  0.17046  0.19621  1.0000
  C   C88       1.0  0.82620  0.04370  0.19544  1.0000
  O   O31       1.0  0.24292  0.45755  0.19035  1.0000
  O   O32       1.0  0.22316  0.06860  0.14493  1.0000
  O   O33       1.0  0.81385  0.27605  0.78270  1.0000
  O   O34       1.0  0.86937  0.16850  0.80793  1.0000
  O   O35       1.0  0.81772  0.03700  0.23571  1.0000
  O   O36       1.0  0.80730  0.49530  0.16475  1.0000
  N   N61       1.0  0.10699  0.49995  0.08374  1.0000
  N   N62       1.0  0.15955  0.47385  0.08145  1.0000
  N   N63       1.0  0.17896  0.49665  0.04357  1.0000
  N   N64       1.0  0.13732  0.03930  0.02000  1.0000
  N   N65       1.0  0.00136  0.19590  0.90055  1.0000
  N   N66       1.0  0.97761  0.23940  0.86514  1.0000
  N   N67       1.0  0.92743  0.26230  0.87454  1.0000
  N   N68       1.0  0.91547  0.23570  0.91443  1.0000
  N   N69       1.0  0.91755  0.10895  0.12282  1.0000
  N   N70       1.0  0.87054  0.12835  0.13915  1.0000
  N   N71       1.0  0.83400  0.17150  0.10990  1.0000
  N   N72       1.0  0.85620  0.17300  0.07170  1.0000
  C   C89       1.0  0.22211  0.49140  0.15398  1.0000
  C   C90       1.0  0.19396  0.43005  0.11817  1.0000
  H   H53       1.0  0.17017  0.39076  0.13202  1.0000
  H   H54       1.0  0.22310  0.39738  0.10621  1.0000
  O   O37       1.0  0.25708  0.20755  0.30965  1.0000
  O   O38       1.0  0.27684  0.31860  0.35507  1.0000
  O   O39       1.0  0.68615  0.02605  0.71730  1.0000
  O   O40       1.0  0.63063  0.41850  0.69207  1.0000
  O   O41       1.0  0.68228  0.28700  0.26429  1.0000
  O   O42       1.0  0.69270  0.24530  0.33525  1.0000
  N   N73       1.0  0.39301  0.24995  0.41626  1.0000
  N   N74       1.0  0.34045  0.22385  0.41855  1.0000
  N   N75       1.0  0.32104  0.24665  0.45643  1.0000
  N   N76       1.0  0.36268  0.28930  0.48000  1.0000
  N   N77       1.0  0.49864  0.44590  0.59945  1.0000
  N   N78       1.0  0.52239  0.48940  0.63486  1.0000
  N   N79       1.0  0.57257  0.01230  0.62546  1.0000
  N   N80       1.0  0.58453  0.48570  0.58557  1.0000
  N   N81       1.0  0.58245  0.35895  0.37718  1.0000
  N   N82       1.0  0.62946  0.37835  0.36085  1.0000
  N   N83       1.0  0.66600  0.42150  0.39010  1.0000
  N   N84       1.0  0.64380  0.42300  0.42830  1.0000
  C   C91       1.0  0.27789  0.24140  0.34602  1.0000
  C   C92       1.0  0.30604  0.18005  0.38183  1.0000
  H   H55       1.0  0.32983  0.14075  0.36798  1.0000
  H   H56       1.0  0.27690  0.14738  0.39379  1.0000
  C   C93       1.0  0.40581  0.29060  0.45510  1.0000
  C   C94       1.0  0.46078  0.33120  0.46923  1.0000
  C   C95       1.0  0.50110  0.33380  0.43954  1.0000
  H   H57       1.0  0.49304  0.30988  0.41103  1.0000
  C   C96       1.0  0.55370  0.37245  0.45280  1.0000
  C   C97       1.0  0.56532  0.40765  0.49528  1.0000
  H   H58       1.0  0.60035  0.43325  0.50402  1.0000
  C   C98       1.0  0.52559  0.40540  0.52506  1.0000
  C   C99       1.0  0.47290  0.36740  0.51163  1.0000
  H   H59       1.0  0.44578  0.36636  0.53123  1.0000
  C   C100      1.0  0.53666  0.44485  0.56960  1.0000
  C   C101      1.0  0.61400  0.05585  0.65832  1.0000
  H   H60       1.0  0.64107  0.08572  0.64258  1.0000
  H   H61       1.0  0.59454  0.09742  0.67449  1.0000
  C   C102      1.0  0.64550  0.49395  0.69183  1.0000
  C   C103      1.0  0.59420  0.37870  0.42031  1.0000
  C   C104      1.0  0.63680  0.36885  0.31392  1.0000
  H   H62       1.0  0.59960  0.36178  0.29642  1.0000
  H   H63       1.0  0.65321  0.42046  0.30379  1.0000
  C   C105      1.0  0.67380  0.29370  0.30456  1.0000
  O   O43       1.0  0.75708  0.45755  0.30965  1.0000
  O   O44       1.0  0.77684  0.06860  0.35507  1.0000
  O   O45       1.0  0.18615  0.27605  0.71730  1.0000
  O   O46       1.0  0.13063  0.16850  0.69207  1.0000
  O   O47       1.0  0.18228  0.03700  0.26429  1.0000
  O   O48       1.0  0.19270  0.49530  0.33525  1.0000
  N   N85       1.0  0.89301  0.49995  0.41626  1.0000
  N   N86       1.0  0.84045  0.47385  0.41855  1.0000
  N   N87       1.0  0.82104  0.49665  0.45643  1.0000
  N   N88       1.0  0.86268  0.03930  0.48000  1.0000
  N   N89       1.0  0.99864  0.19590  0.59945  1.0000
  N   N90       1.0  0.02239  0.23940  0.63486  1.0000
  N   N91       1.0  0.07257  0.26230  0.62546  1.0000
  N   N92       1.0  0.08453  0.23570  0.58557  1.0000
  N   N93       1.0  0.08245  0.10895  0.37718  1.0000
  N   N94       1.0  0.12946  0.12835  0.36085  1.0000
  N   N95       1.0  0.16600  0.17150  0.39010  1.0000
  N   N96       1.0  0.14380  0.17300  0.42830  1.0000
  C   C106      1.0  0.77789  0.49140  0.34602  1.0000
  C   C107      1.0  0.80604  0.43005  0.38183  1.0000
  H   H64       1.0  0.82983  0.39076  0.36798  1.0000
  H   H65       1.0  0.77690  0.39738  0.39379  1.0000
  C   C108      1.0  0.90581  0.04060  0.45510  1.0000
  C   C109      1.0  0.96078  0.08120  0.46923  1.0000
  C   C110      1.0  0.00110  0.08380  0.43954  1.0000
  H   H66       1.0  0.99304  0.05988  0.41103  1.0000
  C   C111      1.0  0.05370  0.12245  0.45280  1.0000
  C   C112      1.0  0.06532  0.15765  0.49528  1.0000
  H   H67       1.0  0.10035  0.18325  0.50402  1.0000
  C   C113      1.0  0.02559  0.15540  0.52506  1.0000
  C   C114      1.0  0.97290  0.11740  0.51163  1.0000
  H   H68       1.0  0.94578  0.11636  0.53123  1.0000
  C   C115      1.0  0.03666  0.19485  0.56960  1.0000
  C   C116      1.0  0.11400  0.30585  0.65832  1.0000
  H   H69       1.0  0.14107  0.33571  0.64258  1.0000
  H   H70       1.0  0.09454  0.34742  0.67449  1.0000
  C   C117      1.0  0.14550  0.24395  0.69183  1.0000
  C   C118      1.0  0.09420  0.12870  0.42031  1.0000
  C   C119      1.0  0.13680  0.11885  0.31392  1.0000
  H   H71       1.0  0.09960  0.11178  0.29642  1.0000
  H   H72       1.0  0.15321  0.17046  0.30379  1.0000
  C   C120      1.0  0.17380  0.04370  0.30456  1.0000
  Ba  Ba1       1.0  0.22434  0.13109  0.76656  1.0000
  Ba  Ba2       1.0  0.72434  0.11890  0.26656  1.0000
  Ba  Ba3       1.0  0.27566  0.11890  0.23344  1.0000
  Ba  Ba4       1.0  0.27566  0.38110  0.73344  1.0000
  Ba  Ba5       1.0  0.72434  0.38110  0.76656  1.0000
  Ba  Ba6       1.0  0.22434  0.36891  0.26656  1.0000
  Ba  Ba7       1.0  0.77566  0.36891  0.23344  1.0000
  Ba  Ba8       1.0  0.77566  0.13109  0.73344  1.0000
  O   O49       1.0  0.25708  0.79245  0.80965  1.0000
  O   O50       1.0  0.27684  0.68140  0.85507  1.0000
  O   O51       1.0  0.68615  0.97395  0.21730  1.0000
  O   O52       1.0  0.63063  0.58150  0.19207  1.0000
  O   O53       1.0  0.68228  0.71300  0.76429  1.0000
  O   O54       1.0  0.69270  0.75470  0.83525  1.0000
  N   N97       1.0  0.39301  0.75005  0.91626  1.0000
  N   N98       1.0  0.34045  0.77615  0.91855  1.0000
  N   N99       1.0  0.32104  0.75335  0.95643  1.0000
  N   N100      1.0  0.36268  0.71070  0.98000  1.0000
  N   N101      1.0  0.49864  0.55410  0.09945  1.0000
  N   N102      1.0  0.52239  0.51060  0.13486  1.0000
  N   N103      1.0  0.57257  0.98770  0.12546  1.0000
  N   N104      1.0  0.58453  0.51430  0.08557  1.0000
  N   N105      1.0  0.58245  0.64105  0.87718  1.0000
  N   N106      1.0  0.62946  0.62165  0.86085  1.0000
  N   N107      1.0  0.66600  0.57850  0.89010  1.0000
  N   N108      1.0  0.64380  0.57700  0.92830  1.0000
  C   C121      1.0  0.27789  0.75860  0.84602  1.0000
  C   C122      1.0  0.30604  0.81995  0.88183  1.0000
  H   H73       1.0  0.32983  0.85925  0.86798  1.0000
  H   H74       1.0  0.27690  0.85262  0.89379  1.0000
  C   C123      1.0  0.40581  0.70940  0.95510  1.0000
  C   C124      1.0  0.46078  0.66880  0.96923  1.0000
  C   C125      1.0  0.50110  0.66620  0.93954  1.0000
  H   H75       1.0  0.49304  0.69012  0.91103  1.0000
  C   C126      1.0  0.55370  0.62755  0.95280  1.0000
  C   C127      1.0  0.56532  0.59235  0.99528  1.0000
  H   H76       1.0  0.60035  0.56675  0.00402  1.0000
  C   C128      1.0  0.52559  0.59460  0.02506  1.0000
  C   C129      1.0  0.47290  0.63260  0.01163  1.0000
  H   H77       1.0  0.44578  0.63364  0.03123  1.0000
  C   C130      1.0  0.53666  0.55515  0.06960  1.0000
  C   C131      1.0  0.61400  0.94415  0.15832  1.0000
  H   H78       1.0  0.64107  0.91429  0.14258  1.0000
  H   H79       1.0  0.59454  0.90259  0.17449  1.0000
  C   C132      1.0  0.64550  0.50605  0.19183  1.0000
  C   C133      1.0  0.59420  0.62130  0.92031  1.0000
  C   C134      1.0  0.63680  0.63115  0.81392  1.0000
  H   H80       1.0  0.59960  0.63823  0.79642  1.0000
  H   H81       1.0  0.65321  0.57954  0.80379  1.0000
  C   C135      1.0  0.67380  0.70630  0.80456  1.0000
  O   O55       1.0  0.75708  0.54245  0.80965  1.0000
  O   O56       1.0  0.77684  0.93140  0.85507  1.0000
  O   O57       1.0  0.18615  0.72395  0.21730  1.0000
  O   O58       1.0  0.13063  0.83150  0.19207  1.0000
  O   O59       1.0  0.18228  0.96300  0.76429  1.0000
  O   O60       1.0  0.19270  0.50470  0.83525  1.0000
  N   N109      1.0  0.89301  0.50005  0.91626  1.0000
  N   N110      1.0  0.84045  0.52615  0.91855  1.0000
  N   N111      1.0  0.82104  0.50335  0.95643  1.0000
  N   N112      1.0  0.86268  0.96070  0.98000  1.0000
  N   N113      1.0  0.99864  0.80410  0.09945  1.0000
  N   N114      1.0  0.02239  0.76060  0.13486  1.0000
  N   N115      1.0  0.07257  0.73770  0.12546  1.0000
  N   N116      1.0  0.08453  0.76430  0.08557  1.0000
  N   N117      1.0  0.08245  0.89105  0.87718  1.0000
  N   N118      1.0  0.12946  0.87165  0.86085  1.0000
  N   N119      1.0  0.16600  0.82850  0.89010  1.0000
  N   N120      1.0  0.14380  0.82700  0.92830  1.0000
  C   C136      1.0  0.77789  0.50860  0.84602  1.0000
  C   C137      1.0  0.80604  0.56995  0.88183  1.0000
  H   H82       1.0  0.82983  0.60925  0.86798  1.0000
  H   H83       1.0  0.77690  0.60262  0.89379  1.0000
  C   C138      1.0  0.90581  0.95940  0.95510  1.0000
  C   C139      1.0  0.96078  0.91880  0.96923  1.0000
  C   C140      1.0  0.00110  0.91620  0.93954  1.0000
  H   H84       1.0  0.99304  0.94012  0.91103  1.0000
  C   C141      1.0  0.05370  0.87755  0.95280  1.0000
  C   C142      1.0  0.06532  0.84235  0.99528  1.0000
  H   H85       1.0  0.10035  0.81675  0.00402  1.0000
  C   C143      1.0  0.02559  0.84460  0.02506  1.0000
  C   C144      1.0  0.97290  0.88260  0.01163  1.0000
  H   H86       1.0  0.94578  0.88364  0.03123  1.0000
  C   C145      1.0  0.03666  0.80515  0.06960  1.0000
  C   C146      1.0  0.11400  0.69415  0.15832  1.0000
  H   H87       1.0  0.14107  0.66429  0.14258  1.0000
  H   H88       1.0  0.09454  0.65258  0.17449  1.0000
  C   C147      1.0  0.14550  0.75605  0.19183  1.0000
  C   C148      1.0  0.09420  0.87130  0.92031  1.0000
  C   C149      1.0  0.13680  0.88115  0.81392  1.0000
  H   H89       1.0  0.09960  0.88823  0.79642  1.0000
  H   H90       1.0  0.15321  0.82954  0.80379  1.0000
  C   C150      1.0  0.17380  0.95630  0.80456  1.0000
  C   C151      1.0  0.46334  0.55515  0.43040  1.0000
  C   C152      1.0  0.38600  0.94415  0.34168  1.0000
  H   H91       1.0  0.35893  0.91429  0.35742  1.0000
  H   H92       1.0  0.40546  0.90259  0.32551  1.0000
  C   C153      1.0  0.35450  0.50605  0.30817  1.0000
  C   C154      1.0  0.40580  0.62130  0.57969  1.0000
  C   C155      1.0  0.36320  0.63115  0.68608  1.0000
  H   H93       1.0  0.40040  0.63823  0.70358  1.0000
  H   H94       1.0  0.34679  0.57954  0.69621  1.0000
  C   C156      1.0  0.32620  0.70630  0.69544  1.0000
  O   O61       1.0  0.74292  0.79245  0.69035  1.0000
  O   O62       1.0  0.72316  0.68140  0.64493  1.0000
  O   O63       1.0  0.31385  0.97395  0.28270  1.0000
  O   O64       1.0  0.36937  0.58150  0.30793  1.0000
  O   O65       1.0  0.31772  0.71300  0.73571  1.0000
  O   O66       1.0  0.30730  0.75470  0.66475  1.0000
  N   N121      1.0  0.60699  0.75005  0.58374  1.0000
  N   N122      1.0  0.65955  0.77615  0.58145  1.0000
  N   N123      1.0  0.67896  0.75335  0.54357  1.0000
  N   N124      1.0  0.63732  0.71070  0.52000  1.0000
  N   N125      1.0  0.50136  0.55410  0.40055  1.0000
  N   N126      1.0  0.47761  0.51060  0.36514  1.0000
  N   N127      1.0  0.42743  0.98770  0.37454  1.0000
  N   N128      1.0  0.41547  0.51430  0.41443  1.0000
  N   N129      1.0  0.41755  0.64105  0.62282  1.0000
  N   N130      1.0  0.37054  0.62165  0.63915  1.0000
  N   N131      1.0  0.33400  0.57850  0.60990  1.0000
  N   N132      1.0  0.35620  0.57700  0.57170  1.0000
  C   C157      1.0  0.72211  0.75860  0.65398  1.0000
  C   C158      1.0  0.69396  0.81995  0.61817  1.0000
  H   H95       1.0  0.67017  0.85925  0.63202  1.0000
  H   H96       1.0  0.72310  0.85262  0.60621  1.0000
  C   C159      1.0  0.59419  0.70940  0.54490  1.0000
  C   C160      1.0  0.53922  0.66880  0.53077  1.0000
  C   C161      1.0  0.49890  0.66620  0.56046  1.0000
  H   H97       1.0  0.50696  0.69012  0.58897  1.0000
  C   C162      1.0  0.44630  0.62755  0.54720  1.0000
  C   C163      1.0  0.43468  0.59235  0.50472  1.0000
  H   H98       1.0  0.39965  0.56675  0.49598  1.0000
  C   C164      1.0  0.47441  0.59460  0.47494  1.0000
  C   C165      1.0  0.52710  0.63260  0.48837  1.0000
  H   H99       1.0  0.55422  0.63364  0.46877  1.0000
  O   O67       1.0  0.24292  0.54245  0.69035  1.0000
  O   O68       1.0  0.22316  0.93140  0.64493  1.0000
  O   O69       1.0  0.81385  0.72395  0.28270  1.0000
  O   O70       1.0  0.86937  0.83150  0.30793  1.0000
  O   O71       1.0  0.81772  0.96300  0.73571  1.0000
  O   O72       1.0  0.80730  0.50470  0.66475  1.0000
  N   N133      1.0  0.10699  0.50005  0.58374  1.0000
  N   N134      1.0  0.15955  0.52615  0.58145  1.0000
  N   N135      1.0  0.17896  0.50335  0.54357  1.0000
  N   N136      1.0  0.13732  0.96070  0.52000  1.0000
  N   N137      1.0  0.00136  0.80410  0.40055  1.0000
  N   N138      1.0  0.97761  0.76060  0.36514  1.0000
  N   N139      1.0  0.92743  0.73770  0.37454  1.0000
  N   N140      1.0  0.91547  0.76430  0.41443  1.0000
  N   N141      1.0  0.91755  0.89105  0.62282  1.0000
  N   N142      1.0  0.87054  0.87165  0.63915  1.0000
  N   N143      1.0  0.83400  0.82850  0.60990  1.0000
  N   N144      1.0  0.85620  0.82700  0.57170  1.0000
  C   C166      1.0  0.22211  0.50860  0.65398  1.0000
  C   C167      1.0  0.19396  0.56995  0.61817  1.0000
  H   H100      1.0  0.17017  0.60925  0.63202  1.0000
  H   H101      1.0  0.22310  0.60262  0.60621  1.0000
  C   C168      1.0  0.09419  0.95940  0.54490  1.0000
  C   C169      1.0  0.03922  0.91880  0.53077  1.0000
  C   C170      1.0  0.99890  0.91620  0.56046  1.0000
  H   H102      1.0  0.00696  0.94012  0.58897  1.0000
  C   C171      1.0  0.94630  0.87755  0.54720  1.0000
  C   C172      1.0  0.93468  0.84235  0.50472  1.0000
  H   H103      1.0  0.89965  0.81675  0.49598  1.0000
  C   C173      1.0  0.97441  0.84460  0.47494  1.0000
  C   C174      1.0  0.02710  0.88260  0.48837  1.0000
  H   H104      1.0  0.05422  0.88364  0.46877  1.0000
  C   C175      1.0  0.96334  0.80515  0.43040  1.0000
  C   C176      1.0  0.88600  0.69415  0.34168  1.0000
  H   H105      1.0  0.85893  0.66429  0.35742  1.0000
  H   H106      1.0  0.90546  0.65258  0.32551  1.0000
  C   C177      1.0  0.85450  0.75605  0.30817  1.0000
  C   C178      1.0  0.90580  0.87130  0.57969  1.0000
  C   C179      1.0  0.86320  0.88115  0.68608  1.0000
  H   H107      1.0  0.90040  0.88823  0.70358  1.0000
  H   H108      1.0  0.84679  0.82954  0.69621  1.0000
  C   C180      1.0  0.82620  0.95630  0.69544  1.0000
  O   O73       1.0  0.74292  0.70755  0.19035  1.0000
  O   O74       1.0  0.72316  0.81860  0.14493  1.0000
  O   O75       1.0  0.31385  0.52605  0.78270  1.0000
  O   O76       1.0  0.36937  0.91850  0.80793  1.0000
  O   O77       1.0  0.31772  0.78700  0.23571  1.0000
  O   O78       1.0  0.30730  0.74530  0.16475  1.0000
  N   N145      1.0  0.60699  0.74995  0.08374  1.0000
  N   N146      1.0  0.65955  0.72385  0.08145  1.0000
  N   N147      1.0  0.67896  0.74665  0.04357  1.0000
  N   N148      1.0  0.63732  0.78930  0.02000  1.0000
  N   N149      1.0  0.50136  0.94590  0.90055  1.0000
  N   N150      1.0  0.47761  0.98940  0.86514  1.0000
  N   N151      1.0  0.42743  0.51230  0.87454  1.0000
  N   N152      1.0  0.41547  0.98570  0.91443  1.0000
  N   N153      1.0  0.41755  0.85895  0.12282  1.0000
  N   N154      1.0  0.37054  0.87835  0.13915  1.0000
  N   N155      1.0  0.33400  0.92150  0.10990  1.0000
  N   N156      1.0  0.35620  0.92300  0.07170  1.0000
  C   C181      1.0  0.72211  0.74140  0.15398  1.0000
  C   C182      1.0  0.69396  0.68005  0.11817  1.0000
  H   H109      1.0  0.67017  0.64075  0.13202  1.0000
  H   H110      1.0  0.72310  0.64738  0.10621  1.0000
  C   C183      1.0  0.59419  0.79060  0.04490  1.0000
  C   C184      1.0  0.53922  0.83120  0.03077  1.0000
  C   C185      1.0  0.49890  0.83380  0.06046  1.0000
  H   H111      1.0  0.50696  0.80988  0.08897  1.0000
  C   C186      1.0  0.44630  0.87245  0.04720  1.0000
  C   C187      1.0  0.43468  0.90765  0.00472  1.0000
  H   H112      1.0  0.39965  0.93325  0.99598  1.0000
  C   C188      1.0  0.47441  0.90540  0.97494  1.0000
  C   C189      1.0  0.52710  0.86740  0.98837  1.0000
  H   H113      1.0  0.55422  0.86636  0.96877  1.0000
  C   C190      1.0  0.46334  0.94485  0.93040  1.0000
  C   C191      1.0  0.38600  0.55585  0.84168  1.0000
  H   H114      1.0  0.35893  0.58571  0.85742  1.0000
  H   H115      1.0  0.40546  0.59742  0.82551  1.0000
  C   C192      1.0  0.35450  0.99395  0.80817  1.0000
  C   C193      1.0  0.40580  0.87870  0.07969  1.0000
  C   C194      1.0  0.36320  0.86885  0.18608  1.0000
  H   H116      1.0  0.40040  0.86178  0.20358  1.0000
  H   H117      1.0  0.34679  0.92046  0.19621  1.0000
  C   C195      1.0  0.32620  0.79370  0.19544  1.0000
  C   C196      1.0  0.09419  0.54060  0.04490  1.0000
  C   C197      1.0  0.03922  0.58120  0.03077  1.0000
  C   C198      1.0  0.99890  0.58380  0.06046  1.0000
  H   H118      1.0  0.00696  0.55988  0.08897  1.0000
  C   C199      1.0  0.94630  0.62245  0.04720  1.0000
  C   C200      1.0  0.93468  0.65765  0.00472  1.0000
  H   H119      1.0  0.89965  0.68325  0.99598  1.0000
  C   C201      1.0  0.97441  0.65540  0.97494  1.0000
  C   C202      1.0  0.02710  0.61740  0.98837  1.0000
  H   H120      1.0  0.05422  0.61636  0.96877  1.0000
  C   C203      1.0  0.96334  0.69485  0.93040  1.0000
  C   C204      1.0  0.88600  0.80585  0.84168  1.0000
  H   H121      1.0  0.85893  0.83572  0.85742  1.0000
  H   H122      1.0  0.90546  0.84742  0.82551  1.0000
  C   C205      1.0  0.85450  0.74395  0.80817  1.0000
  C   C206      1.0  0.90580  0.62870  0.07969  1.0000
  C   C207      1.0  0.86320  0.61885  0.18608  1.0000
  H   H123      1.0  0.90040  0.61178  0.20358  1.0000
  H   H124      1.0  0.84679  0.67046  0.19621  1.0000
  C   C208      1.0  0.82620  0.54370  0.19544  1.0000
  O   O79       1.0  0.24292  0.95755  0.19035  1.0000
  O   O80       1.0  0.22316  0.56860  0.14493  1.0000
  O   O81       1.0  0.81385  0.77605  0.78270  1.0000
  O   O82       1.0  0.86937  0.66850  0.80793  1.0000
  O   O83       1.0  0.81772  0.53700  0.23571  1.0000
  O   O84       1.0  0.80730  0.99530  0.16475  1.0000
  N   N157      1.0  0.10699  0.99995  0.08374  1.0000
  N   N158      1.0  0.15955  0.97385  0.08145  1.0000
  N   N159      1.0  0.17896  0.99665  0.04357  1.0000
  N   N160      1.0  0.13732  0.53930  0.02000  1.0000
  N   N161      1.0  0.00136  0.69590  0.90055  1.0000
  N   N162      1.0  0.97761  0.73940  0.86514  1.0000
  N   N163      1.0  0.92743  0.76230  0.87454  1.0000
  N   N164      1.0  0.91547  0.73570  0.91443  1.0000
  N   N165      1.0  0.91755  0.60895  0.12282  1.0000
  N   N166      1.0  0.87054  0.62835  0.13915  1.0000
  N   N167      1.0  0.83400  0.67150  0.10990  1.0000
  N   N168      1.0  0.85620  0.67300  0.07170  1.0000
  C   C209      1.0  0.22211  0.99140  0.15398  1.0000
  C   C210      1.0  0.19396  0.93005  0.11817  1.0000
  H   H125      1.0  0.17017  0.89076  0.13202  1.0000
  H   H126      1.0  0.22310  0.89738  0.10621  1.0000
  O   O85       1.0  0.25708  0.70755  0.30965  1.0000
  O   O86       1.0  0.27684  0.81860  0.35507  1.0000
  O   O87       1.0  0.68615  0.52605  0.71730  1.0000
  O   O88       1.0  0.63063  0.91850  0.69207  1.0000
  O   O89       1.0  0.68228  0.78700  0.26429  1.0000
  O   O90       1.0  0.69270  0.74530  0.33525  1.0000
  N   N169      1.0  0.39301  0.74995  0.41626  1.0000
  N   N170      1.0  0.34045  0.72385  0.41855  1.0000
  N   N171      1.0  0.32104  0.74665  0.45643  1.0000
  N   N172      1.0  0.36268  0.78930  0.48000  1.0000
  N   N173      1.0  0.49864  0.94590  0.59945  1.0000
  N   N174      1.0  0.52239  0.98940  0.63486  1.0000
  N   N175      1.0  0.57257  0.51230  0.62546  1.0000
  N   N176      1.0  0.58453  0.98570  0.58557  1.0000
  N   N177      1.0  0.58245  0.85895  0.37718  1.0000
  N   N178      1.0  0.62946  0.87835  0.36085  1.0000
  N   N179      1.0  0.66600  0.92150  0.39010  1.0000
  N   N180      1.0  0.64380  0.92300  0.42830  1.0000
  C   C211      1.0  0.27789  0.74140  0.34602  1.0000
  C   C212      1.0  0.30604  0.68005  0.38183  1.0000
  H   H127      1.0  0.32983  0.64075  0.36798  1.0000
  H   H128      1.0  0.27690  0.64738  0.39379  1.0000
  C   C213      1.0  0.40581  0.79060  0.45510  1.0000
  C   C214      1.0  0.46078  0.83120  0.46923  1.0000
  C   C215      1.0  0.50110  0.83380  0.43954  1.0000
  H   H129      1.0  0.49304  0.80988  0.41103  1.0000
  C   C216      1.0  0.55370  0.87245  0.45280  1.0000
  C   C217      1.0  0.56532  0.90765  0.49528  1.0000
  H   H130      1.0  0.60035  0.93325  0.50402  1.0000
  C   C218      1.0  0.52559  0.90540  0.52506  1.0000
  C   C219      1.0  0.47290  0.86740  0.51163  1.0000
  H   H131      1.0  0.44578  0.86636  0.53123  1.0000
  C   C220      1.0  0.53666  0.94485  0.56960  1.0000
  C   C221      1.0  0.61400  0.55585  0.65832  1.0000
  H   H132      1.0  0.64107  0.58571  0.64258  1.0000
  H   H133      1.0  0.59454  0.59742  0.67449  1.0000
  C   C222      1.0  0.64550  0.99395  0.69183  1.0000
  C   C223      1.0  0.59420  0.87870  0.42031  1.0000
  C   C224      1.0  0.63680  0.86885  0.31392  1.0000
  H   H134      1.0  0.59960  0.86178  0.29642  1.0000
  H   H135      1.0  0.65321  0.92046  0.30379  1.0000
  C   C225      1.0  0.67380  0.79370  0.30456  1.0000
  O   O91       1.0  0.75708  0.95755  0.30965  1.0000
  O   O92       1.0  0.77684  0.56860  0.35507  1.0000
  O   O93       1.0  0.18615  0.77605  0.71730  1.0000
  O   O94       1.0  0.13063  0.66850  0.69207  1.0000
  O   O95       1.0  0.18228  0.53700  0.26429  1.0000
  O   O96       1.0  0.19270  0.99530  0.33525  1.0000
  N   N181      1.0  0.89301  0.99995  0.41626  1.0000
  N   N182      1.0  0.84045  0.97385  0.41855  1.0000
  N   N183      1.0  0.82104  0.99665  0.45643  1.0000
  N   N184      1.0  0.86268  0.53930  0.48000  1.0000
  N   N185      1.0  0.99864  0.69590  0.59945  1.0000
  N   N186      1.0  0.02239  0.73940  0.63486  1.0000
  N   N187      1.0  0.07257  0.76230  0.62546  1.0000
  N   N188      1.0  0.08453  0.73570  0.58557  1.0000
  N   N189      1.0  0.08245  0.60895  0.37718  1.0000
  N   N190      1.0  0.12946  0.62835  0.36085  1.0000
  N   N191      1.0  0.16600  0.67150  0.39010  1.0000
  N   N192      1.0  0.14380  0.67300  0.42830  1.0000
  C   C226      1.0  0.77789  0.99140  0.34602  1.0000
  C   C227      1.0  0.80604  0.93005  0.38183  1.0000
  H   H136      1.0  0.82983  0.89076  0.36798  1.0000
  H   H137      1.0  0.77690  0.89738  0.39379  1.0000
  C   C228      1.0  0.90581  0.54060  0.45510  1.0000
  C   C229      1.0  0.96078  0.58120  0.46923  1.0000
  C   C230      1.0  0.00110  0.58380  0.43954  1.0000
  H   H138      1.0  0.99304  0.55988  0.41103  1.0000
  C   C231      1.0  0.05370  0.62245  0.45280  1.0000
  C   C232      1.0  0.06532  0.65765  0.49528  1.0000
  H   H139      1.0  0.10035  0.68325  0.50402  1.0000
  C   C233      1.0  0.02559  0.65540  0.52506  1.0000
  C   C234      1.0  0.97290  0.61740  0.51163  1.0000
  H   H140      1.0  0.94578  0.61636  0.53123  1.0000
  C   C235      1.0  0.03666  0.69485  0.56960  1.0000
  C   C236      1.0  0.11400  0.80585  0.65832  1.0000
  H   H141      1.0  0.14107  0.83572  0.64258  1.0000
  H   H142      1.0  0.09454  0.84742  0.67449  1.0000
  C   C237      1.0  0.14550  0.74395  0.69183  1.0000
  C   C238      1.0  0.09420  0.62870  0.42031  1.0000
  C   C239      1.0  0.13680  0.61885  0.31392  1.0000
  H   H143      1.0  0.09960  0.61178  0.29642  1.0000
  H   H144      1.0  0.15321  0.67046  0.30379  1.0000
  C   C240      1.0  0.17380  0.54370  0.30456  1.0000
  Ba  Ba9       1.0  0.22434  0.63110  0.76656  1.0000
  Ba  Ba10      1.0  0.72434  0.61891  0.26656  1.0000
  Ba  Ba11      1.0  0.27566  0.61891  0.23344  1.0000
  Ba  Ba12      1.0  0.27566  0.88110  0.73344  1.0000
  Ba  Ba13      1.0  0.72434  0.88110  0.76656  1.0000
  Ba  Ba14      1.0  0.22434  0.86891  0.26656  1.0000
  Ba  Ba15      1.0  0.77566  0.86891  0.23344  1.0000
  Ba  Ba16      1.0  0.77566  0.63110  0.73344  1.0000
