data_image0
_chemical_formula_structural       ONCHCHC2HCHONCHCHC2HCHONCHCHC2HCHONCHCHC2HCHONCHCHC2HCHONCHCHC2HCHONCHCHC2HCHONCHCHC2HCHONCHCHC2HCHONCHCHC2HCHONCHCHC2HCHONCHCHC2HCHONCHCHC2HCHONCHCHC2HCHONCHCHC2HCHONCHCHC2HCH2ONCHCHC2HCHONCHCHC2HCONCHCHC2HCHONCHCHC2HCHONCHCHC2HCHONCHCHC2HCHCHCHONCHCHC2HCHONCHCHCONCHCHC2HCHONCHCHC2HCHONCHCHC2HCHONCHCHC2HCHONCHCHC2HCHONCHCHC2HCHONCHCHC2HCHONCHCHC2HCHONCHCHC2HCHONCHCHC2HCHONCHCHC2HCHONCHCHC2HCHONCHCHC2HCHONCHCHC2HCHONCHCHC2HCHONCHCHC2HCHC2HCHONCHCHC2HCHONCHCHONCHCHC2HCHONCHCHC2HCHONCHCHC2HCHONCHCHC2HCH2CHC2HCHONCHCHC2HCHONCCu8
_chemical_formula_sum              "O48 N48 C240 H192 Cu8"
_cell_length_a       23.1885
_cell_length_b       23.1885
_cell_length_c       23.1885
_cell_angle_alpha    90
_cell_angle_beta     90
_cell_angle_gamma    90

_space_group_name_H-M_alt    "P 1"
_space_group_IT_number       1

loop_
  _space_group_symop_operation_xyz
  'x, y, z'

loop_
  _atom_site_type_symbol
  _atom_site_label
  _atom_site_symmetry_multiplicity
  _atom_site_fract_x
  _atom_site_fract_y
  _atom_site_fract_z
  _atom_site_occupancy
  O   O1        1.0  0.32400  0.22320  0.29190  1.0000
  N   N1        1.0  0.32400  0.22100  0.34920  1.0000
  C   C1        1.0  0.36200  0.25280  0.37810  1.0000
  H   H1        1.0  0.38760  0.27610  0.35780  1.0000
  C   C2        1.0  0.36410  0.25200  0.43590  1.0000
  H   H2        1.0  0.39070  0.27510  0.45490  1.0000
  C   C3        1.0  0.32670  0.21660  0.46840  1.0000
  C   C4        1.0  0.28980  0.18280  0.43690  1.0000
  H   H3        1.0  0.26490  0.15820  0.45640  1.0000
  C   C5        1.0  0.28810  0.18390  0.37600  1.0000
  H   H4        1.0  0.26330  0.16010  0.35540  1.0000
  O   O2        1.0  0.32400  0.22320  0.70810  1.0000
  N   N2        1.0  0.32400  0.22100  0.65080  1.0000
  C   C6        1.0  0.36200  0.25280  0.62190  1.0000
  H   H5        1.0  0.38760  0.27610  0.64220  1.0000
  C   C7        1.0  0.36410  0.25200  0.56410  1.0000
  H   H6        1.0  0.39070  0.27510  0.54510  1.0000
  C   C8        1.0  0.32670  0.21660  0.53160  1.0000
  C   C9        1.0  0.28980  0.18280  0.56310  1.0000
  H   H7        1.0  0.26490  0.15820  0.54360  1.0000
  C   C10       1.0  0.28810  0.18390  0.62400  1.0000
  H   H8        1.0  0.26330  0.16010  0.64460  1.0000
  O   O3        1.0  0.82400  0.72320  0.79190  1.0000
  N   N3        1.0  0.82400  0.72100  0.84920  1.0000
  C   C11       1.0  0.86200  0.75280  0.87810  1.0000
  H   H9        1.0  0.88760  0.77610  0.85780  1.0000
  C   C12       1.0  0.86410  0.75200  0.93590  1.0000
  H   H10       1.0  0.89070  0.77510  0.95490  1.0000
  C   C13       1.0  0.82670  0.71660  0.96840  1.0000
  C   C14       1.0  0.78980  0.68280  0.93690  1.0000
  H   H11       1.0  0.76490  0.65820  0.95640  1.0000
  C   C15       1.0  0.78810  0.68390  0.87600  1.0000
  H   H12       1.0  0.76330  0.66010  0.85540  1.0000
  O   O4        1.0  0.82400  0.72320  0.20810  1.0000
  N   N4        1.0  0.82400  0.72100  0.15080  1.0000
  C   C16       1.0  0.86200  0.75280  0.12190  1.0000
  H   H13       1.0  0.88760  0.77610  0.14220  1.0000
  C   C17       1.0  0.86410  0.75200  0.06410  1.0000
  H   H14       1.0  0.89070  0.77510  0.04510  1.0000
  C   C18       1.0  0.82670  0.71660  0.03160  1.0000
  C   C19       1.0  0.78980  0.68280  0.06310  1.0000
  H   H15       1.0  0.76490  0.65820  0.04360  1.0000
  C   C20       1.0  0.78810  0.68390  0.12400  1.0000
  H   H16       1.0  0.76330  0.66010  0.14460  1.0000
  O   O5        1.0  0.67600  0.77680  0.70810  1.0000
  N   N5        1.0  0.67600  0.77900  0.65080  1.0000
  C   C21       1.0  0.63800  0.74720  0.62190  1.0000
  H   H17       1.0  0.61240  0.72390  0.64220  1.0000
  C   C22       1.0  0.63590  0.74800  0.56410  1.0000
  H   H18       1.0  0.60930  0.72490  0.54510  1.0000
  C   C23       1.0  0.67330  0.78340  0.53160  1.0000
  C   C24       1.0  0.71020  0.81720  0.56310  1.0000
  H   H19       1.0  0.73510  0.84180  0.54360  1.0000
  C   C25       1.0  0.71190  0.81610  0.62400  1.0000
  H   H20       1.0  0.73670  0.83990  0.64460  1.0000
  O   O6        1.0  0.67600  0.77680  0.29190  1.0000
  N   N6        1.0  0.67600  0.77900  0.34920  1.0000
  C   C26       1.0  0.63800  0.74720  0.37810  1.0000
  H   H21       1.0  0.61240  0.72390  0.35780  1.0000
  C   C27       1.0  0.63590  0.74800  0.43590  1.0000
  H   H22       1.0  0.60930  0.72490  0.45490  1.0000
  C   C28       1.0  0.67330  0.78340  0.46840  1.0000
  C   C29       1.0  0.71020  0.81720  0.43690  1.0000
  H   H23       1.0  0.73510  0.84180  0.45640  1.0000
  C   C30       1.0  0.71190  0.81610  0.37600  1.0000
  H   H24       1.0  0.73670  0.83990  0.35540  1.0000
  O   O7        1.0  0.17600  0.27680  0.20810  1.0000
  N   N7        1.0  0.17600  0.27900  0.15080  1.0000
  C   C31       1.0  0.13800  0.24720  0.12190  1.0000
  H   H25       1.0  0.11240  0.22390  0.14220  1.0000
  C   C32       1.0  0.13590  0.24800  0.06410  1.0000
  H   H26       1.0  0.10930  0.22490  0.04510  1.0000
  C   C33       1.0  0.17330  0.28340  0.03160  1.0000
  C   C34       1.0  0.21020  0.31720  0.06310  1.0000
  H   H27       1.0  0.23510  0.34180  0.04360  1.0000
  C   C35       1.0  0.21190  0.31610  0.12400  1.0000
  H   H28       1.0  0.23670  0.33990  0.14460  1.0000
  O   O8        1.0  0.17600  0.27680  0.79190  1.0000
  N   N8        1.0  0.17600  0.27900  0.84920  1.0000
  C   C36       1.0  0.13800  0.24720  0.87810  1.0000
  H   H29       1.0  0.11240  0.22390  0.85780  1.0000
  C   C37       1.0  0.13590  0.24800  0.93590  1.0000
  H   H30       1.0  0.10930  0.22490  0.95490  1.0000
  C   C38       1.0  0.17330  0.28340  0.96840  1.0000
  C   C39       1.0  0.21020  0.31720  0.93690  1.0000
  H   H31       1.0  0.23510  0.34180  0.95640  1.0000
  C   C40       1.0  0.21190  0.31610  0.87600  1.0000
  H   H32       1.0  0.23670  0.33990  0.85540  1.0000
  O   O9        1.0  0.67600  0.22320  0.70810  1.0000
  N   N9        1.0  0.67600  0.22100  0.65080  1.0000
  C   C41       1.0  0.63800  0.25280  0.62190  1.0000
  H   H33       1.0  0.61240  0.27610  0.64220  1.0000
  C   C42       1.0  0.63590  0.25200  0.56410  1.0000
  H   H34       1.0  0.60930  0.27510  0.54510  1.0000
  C   C43       1.0  0.67330  0.21660  0.53160  1.0000
  C   C44       1.0  0.71020  0.18280  0.56310  1.0000
  H   H35       1.0  0.73510  0.15820  0.54360  1.0000
  C   C45       1.0  0.71190  0.18390  0.62400  1.0000
  H   H36       1.0  0.73670  0.16010  0.64460  1.0000
  O   O10       1.0  0.67600  0.22320  0.29190  1.0000
  N   N10       1.0  0.67600  0.22100  0.34920  1.0000
  C   C46       1.0  0.63800  0.25280  0.37810  1.0000
  H   H37       1.0  0.61240  0.27610  0.35780  1.0000
  C   C47       1.0  0.63590  0.25200  0.43590  1.0000
  H   H38       1.0  0.60930  0.27510  0.45490  1.0000
  C   C48       1.0  0.67330  0.21660  0.46840  1.0000
  C   C49       1.0  0.71020  0.18280  0.43690  1.0000
  H   H39       1.0  0.73510  0.15820  0.45640  1.0000
  C   C50       1.0  0.71190  0.18390  0.37600  1.0000
  H   H40       1.0  0.73670  0.16010  0.35540  1.0000
  O   O11       1.0  0.17600  0.72320  0.20810  1.0000
  N   N11       1.0  0.17600  0.72100  0.15080  1.0000
  C   C51       1.0  0.13800  0.75280  0.12190  1.0000
  H   H41       1.0  0.11240  0.77610  0.14220  1.0000
  C   C52       1.0  0.13590  0.75200  0.06410  1.0000
  H   H42       1.0  0.10930  0.77510  0.04510  1.0000
  C   C53       1.0  0.17330  0.71660  0.03160  1.0000
  C   C54       1.0  0.21020  0.68280  0.06310  1.0000
  H   H43       1.0  0.23510  0.65820  0.04360  1.0000
  C   C55       1.0  0.21190  0.68390  0.12400  1.0000
  H   H44       1.0  0.23670  0.66010  0.14460  1.0000
  O   O12       1.0  0.17600  0.72320  0.79190  1.0000
  N   N12       1.0  0.17600  0.72100  0.84920  1.0000
  C   C56       1.0  0.13800  0.75280  0.87810  1.0000
  H   H45       1.0  0.11240  0.77610  0.85780  1.0000
  C   C57       1.0  0.13590  0.75200  0.93590  1.0000
  H   H46       1.0  0.10930  0.77510  0.95490  1.0000
  C   C58       1.0  0.17330  0.71660  0.96840  1.0000
  C   C59       1.0  0.21020  0.68280  0.93690  1.0000
  H   H47       1.0  0.23510  0.65820  0.95640  1.0000
  C   C60       1.0  0.21190  0.68390  0.87600  1.0000
  H   H48       1.0  0.23670  0.66010  0.85540  1.0000
  O   O13       1.0  0.32400  0.77680  0.29190  1.0000
  N   N13       1.0  0.32400  0.77900  0.34920  1.0000
  C   C61       1.0  0.36200  0.74720  0.37810  1.0000
  H   H49       1.0  0.38760  0.72390  0.35780  1.0000
  C   C62       1.0  0.36410  0.74800  0.43590  1.0000
  H   H50       1.0  0.39070  0.72490  0.45490  1.0000
  C   C63       1.0  0.32670  0.78340  0.46840  1.0000
  C   C64       1.0  0.28980  0.81720  0.43690  1.0000
  H   H51       1.0  0.26490  0.84180  0.45640  1.0000
  C   C65       1.0  0.28810  0.81610  0.37600  1.0000
  H   H52       1.0  0.26330  0.83990  0.35540  1.0000
  O   O14       1.0  0.32400  0.77680  0.70810  1.0000
  N   N14       1.0  0.32400  0.77900  0.65080  1.0000
  C   C66       1.0  0.36200  0.74720  0.62190  1.0000
  H   H53       1.0  0.38760  0.72390  0.64220  1.0000
  C   C67       1.0  0.36410  0.74800  0.56410  1.0000
  H   H54       1.0  0.39070  0.72490  0.54510  1.0000
  C   C68       1.0  0.32670  0.78340  0.53160  1.0000
  C   C69       1.0  0.28980  0.81720  0.56310  1.0000
  H   H55       1.0  0.26490  0.84180  0.54360  1.0000
  C   C70       1.0  0.28810  0.81610  0.62400  1.0000
  H   H56       1.0  0.26330  0.83990  0.64460  1.0000
  O   O15       1.0  0.82400  0.27680  0.79190  1.0000
  N   N15       1.0  0.82400  0.27900  0.84920  1.0000
  C   C71       1.0  0.86200  0.24720  0.87810  1.0000
  H   H57       1.0  0.88760  0.22390  0.85780  1.0000
  C   C72       1.0  0.86410  0.24800  0.93590  1.0000
  H   H58       1.0  0.89070  0.22490  0.95490  1.0000
  C   C73       1.0  0.82670  0.28340  0.96840  1.0000
  C   C74       1.0  0.78980  0.31720  0.93690  1.0000
  H   H59       1.0  0.76490  0.34180  0.95640  1.0000
  C   C75       1.0  0.78810  0.31610  0.87600  1.0000
  H   H60       1.0  0.76330  0.33990  0.85540  1.0000
  O   O16       1.0  0.82400  0.27680  0.20810  1.0000
  N   N16       1.0  0.82400  0.27900  0.15080  1.0000
  C   C76       1.0  0.86200  0.24720  0.12190  1.0000
  H   H61       1.0  0.88760  0.22390  0.14220  1.0000
  C   C77       1.0  0.86410  0.24800  0.06410  1.0000
  H   H62       1.0  0.89070  0.22490  0.04510  1.0000
  C   C78       1.0  0.82670  0.28340  0.03160  1.0000
  C   C79       1.0  0.78980  0.31720  0.06310  1.0000
  H   H63       1.0  0.76490  0.34180  0.04360  1.0000
  C   C80       1.0  0.78810  0.31610  0.12400  1.0000
  H   H64       1.0  0.76330  0.33990  0.14460  1.0000
  H   H65       1.0  0.64460  0.26330  0.16010  1.0000
  O   O17       1.0  0.29190  0.32400  0.22320  1.0000
  N   N17       1.0  0.34920  0.32400  0.22100  1.0000
  C   C81       1.0  0.37810  0.36200  0.25280  1.0000
  H   H66       1.0  0.35780  0.38760  0.27610  1.0000
  C   C82       1.0  0.43590  0.36410  0.25200  1.0000
  H   H67       1.0  0.45490  0.39070  0.27510  1.0000
  C   C83       1.0  0.46840  0.32670  0.21660  1.0000
  C   C84       1.0  0.43690  0.28980  0.18280  1.0000
  H   H68       1.0  0.45640  0.26490  0.15820  1.0000
  C   C85       1.0  0.37600  0.28810  0.18390  1.0000
  H   H69       1.0  0.35540  0.26330  0.16010  1.0000
  O   O18       1.0  0.70810  0.32400  0.22320  1.0000
  N   N18       1.0  0.65080  0.32400  0.22100  1.0000
  C   C86       1.0  0.62190  0.36200  0.25280  1.0000
  H   H70       1.0  0.64220  0.38760  0.27610  1.0000
  C   C87       1.0  0.56410  0.36410  0.25200  1.0000
  H   H71       1.0  0.54510  0.39070  0.27510  1.0000
  C   C88       1.0  0.53160  0.32670  0.21660  1.0000
  C   C89       1.0  0.56310  0.28980  0.18280  1.0000
  H   H72       1.0  0.54360  0.26490  0.15820  1.0000
  C   C90       1.0  0.62400  0.28810  0.18390  1.0000
  O   O19       1.0  0.20810  0.82400  0.72320  1.0000
  N   N19       1.0  0.15080  0.82400  0.72100  1.0000
  C   C91       1.0  0.12190  0.86200  0.75280  1.0000
  H   H73       1.0  0.14220  0.88760  0.77610  1.0000
  C   C92       1.0  0.06410  0.86410  0.75200  1.0000
  H   H74       1.0  0.04510  0.89070  0.77510  1.0000
  C   C93       1.0  0.03160  0.82670  0.71660  1.0000
  C   C94       1.0  0.06310  0.78980  0.68280  1.0000
  H   H75       1.0  0.04360  0.76490  0.65820  1.0000
  C   C95       1.0  0.12400  0.78810  0.68390  1.0000
  H   H76       1.0  0.14460  0.76330  0.66010  1.0000
  O   O20       1.0  0.79190  0.82400  0.72320  1.0000
  N   N20       1.0  0.84920  0.82400  0.72100  1.0000
  C   C96       1.0  0.87810  0.86200  0.75280  1.0000
  H   H77       1.0  0.85780  0.88760  0.77610  1.0000
  C   C97       1.0  0.93590  0.86410  0.75200  1.0000
  H   H78       1.0  0.95490  0.89070  0.77510  1.0000
  C   C98       1.0  0.96840  0.82670  0.71660  1.0000
  C   C99       1.0  0.93690  0.78980  0.68280  1.0000
  H   H79       1.0  0.95640  0.76490  0.65820  1.0000
  C   C100      1.0  0.87600  0.78810  0.68390  1.0000
  H   H80       1.0  0.85540  0.76330  0.66010  1.0000
  O   O21       1.0  0.70810  0.67600  0.77680  1.0000
  N   N21       1.0  0.65080  0.67600  0.77900  1.0000
  C   C101      1.0  0.62190  0.63800  0.74720  1.0000
  H   H81       1.0  0.64220  0.61240  0.72390  1.0000
  C   C102      1.0  0.56410  0.63590  0.74800  1.0000
  H   H82       1.0  0.54510  0.60930  0.72490  1.0000
  C   C103      1.0  0.53160  0.67330  0.78340  1.0000
  C   C104      1.0  0.56310  0.71020  0.81720  1.0000
  H   H83       1.0  0.54360  0.73510  0.84180  1.0000
  C   C105      1.0  0.62400  0.71190  0.81610  1.0000
  H   H84       1.0  0.64460  0.73670  0.83990  1.0000
  O   O22       1.0  0.29190  0.67600  0.77680  1.0000
  N   N22       1.0  0.34920  0.67600  0.77900  1.0000
  C   C106      1.0  0.37810  0.63800  0.74720  1.0000
  H   H85       1.0  0.35780  0.61240  0.72390  1.0000
  C   C107      1.0  0.43590  0.63590  0.74800  1.0000
  H   H86       1.0  0.45490  0.60930  0.72490  1.0000
  C   C108      1.0  0.46840  0.67330  0.78340  1.0000
  C   C109      1.0  0.43690  0.71020  0.81720  1.0000
  H   H87       1.0  0.45640  0.73510  0.84180  1.0000
  C   C110      1.0  0.37600  0.71190  0.81610  1.0000
  H   H88       1.0  0.35540  0.73670  0.83990  1.0000
  C   C111      1.0  0.93690  0.21020  0.31720  1.0000
  H   H89       1.0  0.95640  0.23510  0.34180  1.0000
  C   C112      1.0  0.87600  0.21190  0.31610  1.0000
  H   H90       1.0  0.85540  0.23670  0.33990  1.0000
  O   O23       1.0  0.20810  0.17600  0.27680  1.0000
  N   N23       1.0  0.15080  0.17600  0.27900  1.0000
  C   C113      1.0  0.12190  0.13800  0.24720  1.0000
  H   H91       1.0  0.14220  0.11240  0.22390  1.0000
  C   C114      1.0  0.06410  0.13590  0.24800  1.0000
  H   H92       1.0  0.04510  0.10930  0.22490  1.0000
  C   C115      1.0  0.03160  0.17330  0.28340  1.0000
  C   C116      1.0  0.06310  0.21020  0.31720  1.0000
  H   H93       1.0  0.04360  0.23510  0.34180  1.0000
  C   C117      1.0  0.12400  0.21190  0.31610  1.0000
  H   H94       1.0  0.14460  0.23670  0.33990  1.0000
  O   O24       1.0  0.79190  0.17600  0.27680  1.0000
  N   N24       1.0  0.84920  0.17600  0.27900  1.0000
  C   C118      1.0  0.87810  0.13800  0.24720  1.0000
  H   H95       1.0  0.85780  0.11240  0.22390  1.0000
  C   C119      1.0  0.93590  0.13590  0.24800  1.0000
  H   H96       1.0  0.95490  0.10930  0.22490  1.0000
  C   C120      1.0  0.96840  0.17330  0.28340  1.0000
  O   O25       1.0  0.70810  0.67600  0.22320  1.0000
  N   N25       1.0  0.65080  0.67600  0.22100  1.0000
  C   C121      1.0  0.62190  0.63800  0.25280  1.0000
  H   H97       1.0  0.64220  0.61240  0.27610  1.0000
  C   C122      1.0  0.56410  0.63590  0.25200  1.0000
  H   H98       1.0  0.54510  0.60930  0.27510  1.0000
  C   C123      1.0  0.53160  0.67330  0.21660  1.0000
  C   C124      1.0  0.56310  0.71020  0.18280  1.0000
  H   H99       1.0  0.54360  0.73510  0.15820  1.0000
  C   C125      1.0  0.62400  0.71190  0.18390  1.0000
  H   H100      1.0  0.64460  0.73670  0.16010  1.0000
  O   O26       1.0  0.29190  0.67600  0.22320  1.0000
  N   N26       1.0  0.34920  0.67600  0.22100  1.0000
  C   C126      1.0  0.37810  0.63800  0.25280  1.0000
  H   H101      1.0  0.35780  0.61240  0.27610  1.0000
  C   C127      1.0  0.43590  0.63590  0.25200  1.0000
  H   H102      1.0  0.45490  0.60930  0.27510  1.0000
  C   C128      1.0  0.46840  0.67330  0.21660  1.0000
  C   C129      1.0  0.43690  0.71020  0.18280  1.0000
  H   H103      1.0  0.45640  0.73510  0.15820  1.0000
  C   C130      1.0  0.37600  0.71190  0.18390  1.0000
  H   H104      1.0  0.35540  0.73670  0.16010  1.0000
  O   O27       1.0  0.20810  0.17600  0.72320  1.0000
  N   N27       1.0  0.15080  0.17600  0.72100  1.0000
  C   C131      1.0  0.12190  0.13800  0.75280  1.0000
  H   H105      1.0  0.14220  0.11240  0.77610  1.0000
  C   C132      1.0  0.06410  0.13590  0.75200  1.0000
  H   H106      1.0  0.04510  0.10930  0.77510  1.0000
  C   C133      1.0  0.03160  0.17330  0.71660  1.0000
  C   C134      1.0  0.06310  0.21020  0.68280  1.0000
  H   H107      1.0  0.04360  0.23510  0.65820  1.0000
  C   C135      1.0  0.12400  0.21190  0.68390  1.0000
  H   H108      1.0  0.14460  0.23670  0.66010  1.0000
  O   O28       1.0  0.79190  0.17600  0.72320  1.0000
  N   N28       1.0  0.84920  0.17600  0.72100  1.0000
  C   C136      1.0  0.87810  0.13800  0.75280  1.0000
  H   H109      1.0  0.85780  0.11240  0.77610  1.0000
  C   C137      1.0  0.93590  0.13590  0.75200  1.0000
  H   H110      1.0  0.95490  0.10930  0.77510  1.0000
  C   C138      1.0  0.96840  0.17330  0.71660  1.0000
  C   C139      1.0  0.93690  0.21020  0.68280  1.0000
  H   H111      1.0  0.95640  0.23510  0.65820  1.0000
  C   C140      1.0  0.87600  0.21190  0.68390  1.0000
  H   H112      1.0  0.85540  0.23670  0.66010  1.0000
  O   O29       1.0  0.29190  0.32400  0.77680  1.0000
  N   N29       1.0  0.34920  0.32400  0.77900  1.0000
  C   C141      1.0  0.37810  0.36200  0.74720  1.0000
  H   H113      1.0  0.35780  0.38760  0.72390  1.0000
  C   C142      1.0  0.43590  0.36410  0.74800  1.0000
  H   H114      1.0  0.45490  0.39070  0.72490  1.0000
  C   C143      1.0  0.46840  0.32670  0.78340  1.0000
  C   C144      1.0  0.43690  0.28980  0.81720  1.0000
  H   H115      1.0  0.45640  0.26490  0.84180  1.0000
  C   C145      1.0  0.37600  0.28810  0.81610  1.0000
  H   H116      1.0  0.35540  0.26330  0.83990  1.0000
  O   O30       1.0  0.70810  0.32400  0.77680  1.0000
  N   N30       1.0  0.65080  0.32400  0.77900  1.0000
  C   C146      1.0  0.62190  0.36200  0.74720  1.0000
  H   H117      1.0  0.64220  0.38760  0.72390  1.0000
  C   C147      1.0  0.56410  0.36410  0.74800  1.0000
  H   H118      1.0  0.54510  0.39070  0.72490  1.0000
  C   C148      1.0  0.53160  0.32670  0.78340  1.0000
  C   C149      1.0  0.56310  0.28980  0.81720  1.0000
  H   H119      1.0  0.54360  0.26490  0.84180  1.0000
  C   C150      1.0  0.62400  0.28810  0.81610  1.0000
  H   H120      1.0  0.64460  0.26330  0.83990  1.0000
  O   O31       1.0  0.79190  0.82400  0.27680  1.0000
  N   N31       1.0  0.84920  0.82400  0.27900  1.0000
  C   C151      1.0  0.87810  0.86200  0.24720  1.0000
  H   H121      1.0  0.85780  0.88760  0.22390  1.0000
  C   C152      1.0  0.93590  0.86410  0.24800  1.0000
  H   H122      1.0  0.95490  0.89070  0.22490  1.0000
  C   C153      1.0  0.96840  0.82670  0.28340  1.0000
  C   C154      1.0  0.93690  0.78980  0.31720  1.0000
  H   H123      1.0  0.95640  0.76490  0.34180  1.0000
  C   C155      1.0  0.87600  0.78810  0.31610  1.0000
  H   H124      1.0  0.85540  0.76330  0.33990  1.0000
  O   O32       1.0  0.20810  0.82400  0.27680  1.0000
  N   N32       1.0  0.15080  0.82400  0.27900  1.0000
  C   C156      1.0  0.12190  0.86200  0.24720  1.0000
  H   H125      1.0  0.14220  0.88760  0.22390  1.0000
  C   C157      1.0  0.06410  0.86410  0.24800  1.0000
  H   H126      1.0  0.04510  0.89070  0.22490  1.0000
  C   C158      1.0  0.03160  0.82670  0.28340  1.0000
  C   C159      1.0  0.06310  0.78980  0.31720  1.0000
  H   H127      1.0  0.04360  0.76490  0.34180  1.0000
  C   C160      1.0  0.12400  0.78810  0.31610  1.0000
  H   H128      1.0  0.14460  0.76330  0.33990  1.0000
  O   O33       1.0  0.22320  0.29190  0.32400  1.0000
  N   N33       1.0  0.22100  0.34920  0.32400  1.0000
  C   C161      1.0  0.25280  0.37810  0.36200  1.0000
  H   H129      1.0  0.27610  0.35780  0.38760  1.0000
  C   C162      1.0  0.25200  0.43590  0.36410  1.0000
  H   H130      1.0  0.27510  0.45490  0.39070  1.0000
  C   C163      1.0  0.21660  0.46840  0.32670  1.0000
  C   C164      1.0  0.18280  0.43690  0.28980  1.0000
  H   H131      1.0  0.15820  0.45640  0.26490  1.0000
  C   C165      1.0  0.18390  0.37600  0.28810  1.0000
  H   H132      1.0  0.16010  0.35540  0.26330  1.0000
  O   O34       1.0  0.22320  0.70810  0.32400  1.0000
  N   N34       1.0  0.22100  0.65080  0.32400  1.0000
  C   C166      1.0  0.25280  0.62190  0.36200  1.0000
  H   H133      1.0  0.27610  0.64220  0.38760  1.0000
  C   C167      1.0  0.25200  0.56410  0.36410  1.0000
  H   H134      1.0  0.27510  0.54510  0.39070  1.0000
  C   C168      1.0  0.21660  0.53160  0.32670  1.0000
  C   C169      1.0  0.18280  0.56310  0.28980  1.0000
  H   H135      1.0  0.15820  0.54360  0.26490  1.0000
  C   C170      1.0  0.18390  0.62400  0.28810  1.0000
  H   H136      1.0  0.16010  0.64460  0.26330  1.0000
  O   O35       1.0  0.72320  0.79190  0.82400  1.0000
  N   N35       1.0  0.72100  0.84920  0.82400  1.0000
  C   C171      1.0  0.75280  0.87810  0.86200  1.0000
  H   H137      1.0  0.77610  0.85780  0.88760  1.0000
  C   C172      1.0  0.75200  0.93590  0.86410  1.0000
  H   H138      1.0  0.77510  0.95490  0.89070  1.0000
  C   C173      1.0  0.71660  0.96840  0.82670  1.0000
  C   C174      1.0  0.68280  0.93690  0.78980  1.0000
  H   H139      1.0  0.65820  0.95640  0.76490  1.0000
  C   C175      1.0  0.68390  0.87600  0.78810  1.0000
  H   H140      1.0  0.66010  0.85540  0.76330  1.0000
  O   O36       1.0  0.72320  0.20810  0.82400  1.0000
  N   N36       1.0  0.72100  0.15080  0.82400  1.0000
  C   C176      1.0  0.75280  0.12190  0.86200  1.0000
  H   H141      1.0  0.77610  0.14220  0.88760  1.0000
  C   C177      1.0  0.75200  0.06410  0.86410  1.0000
  H   H142      1.0  0.77510  0.04510  0.89070  1.0000
  C   C178      1.0  0.71660  0.03160  0.82670  1.0000
  C   C179      1.0  0.68280  0.06310  0.78980  1.0000
  H   H143      1.0  0.65820  0.04360  0.76490  1.0000
  C   C180      1.0  0.68390  0.12400  0.78810  1.0000
  H   H144      1.0  0.66010  0.14460  0.76330  1.0000
  O   O37       1.0  0.77680  0.70810  0.67600  1.0000
  N   N37       1.0  0.77900  0.65080  0.67600  1.0000
  C   C181      1.0  0.74720  0.62190  0.63800  1.0000
  H   H145      1.0  0.72390  0.64220  0.61240  1.0000
  C   C182      1.0  0.74800  0.56410  0.63590  1.0000
  H   H146      1.0  0.72490  0.54510  0.60930  1.0000
  C   C183      1.0  0.78340  0.53160  0.67330  1.0000
  C   C184      1.0  0.81720  0.56310  0.71020  1.0000
  H   H147      1.0  0.84180  0.54360  0.73510  1.0000
  C   C185      1.0  0.81610  0.62400  0.71190  1.0000
  H   H148      1.0  0.83990  0.64460  0.73670  1.0000
  O   O38       1.0  0.77680  0.29190  0.67600  1.0000
  N   N38       1.0  0.77900  0.34920  0.67600  1.0000
  C   C186      1.0  0.74720  0.37810  0.63800  1.0000
  H   H149      1.0  0.72390  0.35780  0.61240  1.0000
  C   C187      1.0  0.74800  0.43590  0.63590  1.0000
  H   H150      1.0  0.72490  0.45490  0.60930  1.0000
  C   C188      1.0  0.78340  0.46840  0.67330  1.0000
  C   C189      1.0  0.81720  0.43690  0.71020  1.0000
  H   H151      1.0  0.84180  0.45640  0.73510  1.0000
  C   C190      1.0  0.81610  0.37600  0.71190  1.0000
  H   H152      1.0  0.83990  0.35540  0.73670  1.0000
  O   O39       1.0  0.27680  0.20810  0.17600  1.0000
  N   N39       1.0  0.27900  0.15080  0.17600  1.0000
  C   C191      1.0  0.24720  0.12190  0.13800  1.0000
  H   H153      1.0  0.22390  0.14220  0.11240  1.0000
  C   C192      1.0  0.24800  0.06410  0.13590  1.0000
  H   H154      1.0  0.22490  0.04510  0.10930  1.0000
  C   C193      1.0  0.28340  0.03160  0.17330  1.0000
  C   C194      1.0  0.31720  0.06310  0.21020  1.0000
  H   H155      1.0  0.34180  0.04360  0.23510  1.0000
  C   C195      1.0  0.31610  0.12400  0.21190  1.0000
  H   H156      1.0  0.33990  0.14460  0.23670  1.0000
  O   O40       1.0  0.27680  0.79190  0.17600  1.0000
  N   N40       1.0  0.27900  0.84920  0.17600  1.0000
  C   C196      1.0  0.24720  0.87810  0.13800  1.0000
  H   H157      1.0  0.22390  0.85780  0.11240  1.0000
  C   C197      1.0  0.24800  0.93590  0.13590  1.0000
  H   H158      1.0  0.22490  0.95490  0.10930  1.0000
  C   C198      1.0  0.28340  0.96840  0.17330  1.0000
  C   C199      1.0  0.31720  0.93690  0.21020  1.0000
  H   H159      1.0  0.34180  0.95640  0.23510  1.0000
  C   C200      1.0  0.31610  0.87600  0.21190  1.0000
  H   H160      1.0  0.33990  0.85540  0.23670  1.0000
  C   C201      1.0  0.21660  0.46840  0.67330  1.0000
  C   C202      1.0  0.18280  0.43690  0.71020  1.0000
  H   H161      1.0  0.15820  0.45640  0.73510  1.0000
  C   C203      1.0  0.18390  0.37600  0.71190  1.0000
  H   H162      1.0  0.16010  0.35540  0.73670  1.0000
  O   O41       1.0  0.22320  0.70810  0.67600  1.0000
  N   N41       1.0  0.22100  0.65080  0.67600  1.0000
  C   C204      1.0  0.25280  0.62190  0.63800  1.0000
  H   H163      1.0  0.27610  0.64220  0.61240  1.0000
  C   C205      1.0  0.25200  0.56410  0.63590  1.0000
  H   H164      1.0  0.27510  0.54510  0.60930  1.0000
  C   C206      1.0  0.21660  0.53160  0.67330  1.0000
  C   C207      1.0  0.18280  0.56310  0.71020  1.0000
  H   H165      1.0  0.15820  0.54360  0.73510  1.0000
  C   C208      1.0  0.18390  0.62400  0.71190  1.0000
  H   H166      1.0  0.16010  0.64460  0.73670  1.0000
  O   O42       1.0  0.22320  0.29190  0.67600  1.0000
  N   N42       1.0  0.22100  0.34920  0.67600  1.0000
  C   C209      1.0  0.25280  0.37810  0.63800  1.0000
  H   H167      1.0  0.27610  0.35780  0.61240  1.0000
  C   C210      1.0  0.25200  0.43590  0.63590  1.0000
  H   H168      1.0  0.27510  0.45490  0.60930  1.0000
  O   O43       1.0  0.72320  0.79190  0.17600  1.0000
  N   N43       1.0  0.72100  0.84920  0.17600  1.0000
  C   C211      1.0  0.75280  0.87810  0.13800  1.0000
  H   H169      1.0  0.77610  0.85780  0.11240  1.0000
  C   C212      1.0  0.75200  0.93590  0.13590  1.0000
  H   H170      1.0  0.77510  0.95490  0.10930  1.0000
  C   C213      1.0  0.71660  0.96840  0.17330  1.0000
  C   C214      1.0  0.68280  0.93690  0.21020  1.0000
  H   H171      1.0  0.65820  0.95640  0.23510  1.0000
  C   C215      1.0  0.68390  0.87600  0.21190  1.0000
  H   H172      1.0  0.66010  0.85540  0.23670  1.0000
  O   O44       1.0  0.72320  0.20810  0.17600  1.0000
  N   N44       1.0  0.72100  0.15080  0.17600  1.0000
  C   C216      1.0  0.75280  0.12190  0.13800  1.0000
  H   H173      1.0  0.77610  0.14220  0.11240  1.0000
  C   C217      1.0  0.75200  0.06410  0.13590  1.0000
  H   H174      1.0  0.77510  0.04510  0.10930  1.0000
  C   C218      1.0  0.71660  0.03160  0.17330  1.0000
  C   C219      1.0  0.68280  0.06310  0.21020  1.0000
  H   H175      1.0  0.65820  0.04360  0.23510  1.0000
  C   C220      1.0  0.68390  0.12400  0.21190  1.0000
  H   H176      1.0  0.66010  0.14460  0.23670  1.0000
  O   O45       1.0  0.77680  0.29190  0.32400  1.0000
  N   N45       1.0  0.77900  0.34920  0.32400  1.0000
  C   C221      1.0  0.74720  0.37810  0.36200  1.0000
  H   H177      1.0  0.72390  0.35780  0.38760  1.0000
  C   C222      1.0  0.74800  0.43590  0.36410  1.0000
  H   H178      1.0  0.72490  0.45490  0.39070  1.0000
  C   C223      1.0  0.78340  0.46840  0.32670  1.0000
  C   C224      1.0  0.81720  0.43690  0.28980  1.0000
  H   H179      1.0  0.84180  0.45640  0.26490  1.0000
  C   C225      1.0  0.81610  0.37600  0.28810  1.0000
  H   H180      1.0  0.83990  0.35540  0.26330  1.0000
  O   O46       1.0  0.77680  0.70810  0.32400  1.0000
  N   N46       1.0  0.77900  0.65080  0.32400  1.0000
  C   C226      1.0  0.74720  0.62190  0.36200  1.0000
  H   H181      1.0  0.72390  0.64220  0.38760  1.0000
  C   C227      1.0  0.74800  0.56410  0.36410  1.0000
  H   H182      1.0  0.72490  0.54510  0.39070  1.0000
  C   C228      1.0  0.78340  0.53160  0.32670  1.0000
  C   C229      1.0  0.81720  0.56310  0.28980  1.0000
  H   H183      1.0  0.84180  0.54360  0.26490  1.0000
  C   C230      1.0  0.81610  0.62400  0.28810  1.0000
  H   H184      1.0  0.83990  0.64460  0.26330  1.0000
  H   H185      1.0  0.22390  0.14220  0.88760  1.0000
  C   C231      1.0  0.24800  0.06410  0.86410  1.0000
  H   H186      1.0  0.22490  0.04510  0.89070  1.0000
  C   C232      1.0  0.28340  0.03160  0.82670  1.0000
  C   C233      1.0  0.31720  0.06310  0.78980  1.0000
  H   H187      1.0  0.34180  0.04360  0.76490  1.0000
  C   C234      1.0  0.31610  0.12400  0.78810  1.0000
  H   H188      1.0  0.33990  0.14460  0.76330  1.0000
  O   O47       1.0  0.27680  0.79190  0.82400  1.0000
  N   N47       1.0  0.27900  0.84920  0.82400  1.0000
  C   C235      1.0  0.24720  0.87810  0.86200  1.0000
  H   H189      1.0  0.22390  0.85780  0.88760  1.0000
  C   C236      1.0  0.24800  0.93590  0.86410  1.0000
  H   H190      1.0  0.22490  0.95490  0.89070  1.0000
  C   C237      1.0  0.28340  0.96840  0.82670  1.0000
  C   C238      1.0  0.31720  0.93690  0.78980  1.0000
  H   H191      1.0  0.34180  0.95640  0.76490  1.0000
  C   C239      1.0  0.31610  0.87600  0.78810  1.0000
  H   H192      1.0  0.33990  0.85540  0.76330  1.0000
  O   O48       1.0  0.27680  0.20810  0.82400  1.0000
  N   N48       1.0  0.27900  0.15080  0.82400  1.0000
  C   C240      1.0  0.24720  0.12190  0.86200  1.0000
  Cu  Cu1       1.0  0.25000  0.25000  0.25000  1.0000
  Cu  Cu2       1.0  0.75000  0.75000  0.25000  1.0000
  Cu  Cu3       1.0  0.75000  0.25000  0.75000  1.0000
  Cu  Cu4       1.0  0.25000  0.75000  0.75000  1.0000
  Cu  Cu5       1.0  0.75000  0.75000  0.75000  1.0000
  Cu  Cu6       1.0  0.25000  0.25000  0.75000  1.0000
  Cu  Cu7       1.0  0.25000  0.75000  0.25000  1.0000
  Cu  Cu8       1.0  0.75000  0.25000  0.25000  1.0000
