data_image0
_chemical_formula_structural       P4O2HO3HO4HOHOHON4C2HCHC4HC2HCHCHC2HCHC4HC2HCHCHC2HCHC4HC2HCHCHC2HCHC4HC2HCHCHCHCHC4HC2HCHCHC2HCHC4HC2HCHCHC2HCHC4HC2HCHCHP4O2HO3HO4HOHOHON4C2HCHC4HC2HCHCHCP4O2HO3HO4HOHOHON4C2HCHC4HC2HCHCHC2HCHC4HC2HCHCHC2HCHC4HC2HCHCHC2HCHC4HC2HCHCHC2HCHC4HC2HCHCHC2HCHC4HC2HCHCHC2HCHC4HC2HCHCHC2HCHC4HC2HCHCHP4O2HO3HO4HOHOHON4P4O4HO5HOHO2HN4C2HCHC4HC2HCHCHC2HCHC4HC2HCHCHC2HCHC4HC2HCHCHC2HCHC4HC2HCHCHP4O4HO5HOHO2HN4C2HCHC4HC2HCHCHC2HCHC4HC2HCHCHC2HCHC4HC2HCHCHC2HCHC4HC2HCHCHP4O4HO5HOHO2HN4C2HCHC4HC2HCHCHC2HCHC4HC2HCHCHC2HCHC4HC2HCHCHC2HCHC4HC2HCHCH2CHC4HC2HCHCHC2HCHC4HC2HCHCHP4O4HO5HOHO2HN4C2HCHC4HC2HCHCHC2HCHC4HC2HCHCHC2P4O2HO9HON4C2HCHC4HC2HCHCHC2HCHC4HC2HCHCHC2HCHC4HC2HCHCHC2HCHC4HC2HCHCHP4O2HO9HON4C2HCHC4HC2HCHCHC2HCHC4HC2HCHCHC2HCHC4HC2HCHCHC2HCHC4HC2HCHCHP4O2HO9HON4C2HCHC4HC2HCHCHC2HCHC4HC2HCHCHC2HCHC4HC2HCHCHC2HCHC4HC2HCHCHP4O2HO9HON4C2HCHC4HC2HCHCHC2HCHC4HC2HCHCHC2HCHC4HC2HCHCHC2HCHC4HC2HCHCHZn3Ni3Zn3Ni3Zn3Ni3Zn3Ni3
_chemical_formula_sum              "P48 O144 H332 N48 C528 Zn12 Ni12"
_cell_length_a       32.727
_cell_length_b       19.159
_cell_length_c       25.297
_cell_angle_alpha    90
_cell_angle_beta     90
_cell_angle_gamma    90

_space_group_name_H-M_alt    "P 1"
_space_group_IT_number       1

loop_
  _space_group_symop_operation_xyz
  'x, y, z'

loop_
  _atom_site_type_symbol
  _atom_site_label
  _atom_site_symmetry_multiplicity
  _atom_site_fract_x
  _atom_site_fract_y
  _atom_site_fract_z
  _atom_site_occupancy
  P   P1        1.0  0.71317  0.63590  0.51238  1.0000
  P   P2        1.0  0.92972  0.04960  0.76850  1.0000
  P   P3        1.0  0.74355  0.86230  0.14443  1.0000
  P   P4        1.0  0.58628  0.41770  0.84130  1.0000
  O   O1        1.0  0.70270  0.65810  0.45750  1.0000
  O   O2        1.0  0.75660  0.60790  0.51760  1.0000
  H   H1        1.0  0.77250  0.62830  0.49470  1.0000
  O   O3        1.0  0.68360  0.58060  0.53360  1.0000
  O   O4        1.0  0.97060  0.07200  0.77790  1.0000
  O   O5        1.0  0.89580  0.08330  0.80700  1.0000
  H   H2        1.0  0.87850  0.10480  0.78840  1.0000
  O   O6        1.0  0.92190  0.06690  0.70880  1.0000
  O   O7        1.0  0.75940  0.92850  0.12020  1.0000
  O   O8        1.0  0.75450  0.85520  0.20160  1.0000
  O   O9        1.0  0.69710  0.85830  0.13490  1.0000
  H   H3        1.0  0.68480  0.86090  0.16400  1.0000
  O   O10       1.0  0.63070  0.39480  0.82950  1.0000
  H   H4        1.0  0.64020  0.37710  0.85890  1.0000
  O   O11       1.0  0.56770  0.38600  0.88990  1.0000
  H   H5        1.0  0.56640  0.34250  0.88630  1.0000
  O   O12       1.0  0.56060  0.41260  0.79080  1.0000
  N   N1        1.0  0.70850  0.70960  0.78670  1.0000
  N   N2        1.0  0.78040  0.78060  0.76910  1.0000
  N   N3        1.0  0.79820  0.77240  0.87620  1.0000
  N   N4        1.0  0.72380  0.70970  0.89280  1.0000
  C   C1        1.0  0.67350  0.67260  0.80120  1.0000
  C   C2        1.0  0.64870  0.65750  0.75580  1.0000
  H   H6        1.0  0.62350  0.63310  0.75630  1.0000
  C   C3        1.0  0.66750  0.68390  0.71200  1.0000
  H   H7        1.0  0.65840  0.68150  0.67630  1.0000
  C   C4        1.0  0.70370  0.71600  0.73190  1.0000
  C   C5        1.0  0.73190  0.75390  0.69920  1.0000
  C   C6        1.0  0.71860  0.76050  0.64260  1.0000
  C   C7        1.0  0.72000  0.70470  0.60850  1.0000
  H   H8        1.0  0.72790  0.66050  0.62210  1.0000
  C   C8        1.0  0.71040  0.70980  0.55470  1.0000
  C   C9        1.0  0.69840  0.77550  0.53720  1.0000
  H   H9        1.0  0.69270  0.78170  0.50070  1.0000
  C   C10       1.0  0.69450  0.83210  0.57050  1.0000
  H   H10       1.0  0.68440  0.87560  0.55790  1.0000
  C   C11       1.0  0.70560  0.82370  0.62170  1.0000
  H   H11       1.0  0.70430  0.86310  0.64450  1.0000
  C   C12       1.0  0.76540  0.78320  0.71680  1.0000
  C   C13       1.0  0.79520  0.81440  0.68260  1.0000
  H   H12       1.0  0.79270  0.82230  0.64570  1.0000
  C   C14       1.0  0.82930  0.83110  0.71500  1.0000
  H   H13       1.0  0.85430  0.85140  0.70380  1.0000
  C   C15       1.0  0.81870  0.81190  0.76610  1.0000
  C   C16       1.0  0.84380  0.82150  0.80860  1.0000
  C   C17       1.0  0.88570  0.85620  0.80050  1.0000
  C   C18       1.0  0.89070  0.92440  0.79440  1.0000
  H   H14       1.0  0.86720  0.95310  0.79860  1.0000
  C   C19       1.0  0.92540  0.95560  0.78300  1.0000
  C   C20       1.0  0.96360  0.91830  0.78530  1.0000
  H   H15       1.0  0.98960  0.94020  0.78480  1.0000
  C   C21       1.0  0.95760  0.84450  0.78850  1.0000
  H   H16       1.0  0.98010  0.81440  0.78180  1.0000
  C   C22       1.0  0.92190  0.81710  0.80030  1.0000
  H   H17       1.0  0.92060  0.76900  0.80910  1.0000
  C   C23       1.0  0.83390  0.80230  0.85960  1.0000
  C   C24       1.0  0.85900  0.81650  0.90540  1.0000
  H   H18       1.0  0.88530  0.83740  0.90550  1.0000
  C   C25       1.0  0.83880  0.79540  0.94630  1.0000
  H   H19       1.0  0.84810  0.79800  0.98180  1.0000
  C   C26       1.0  0.80000  0.76750  0.92980  1.0000
  C   C27       1.0  0.77130  0.73950  0.96390  1.0000
  C   C28       1.0  0.77860  0.74080  0.02100  1.0000
  C   C29       1.0  0.76090  0.79000  0.05170  1.0000
  H   H20       1.0  0.74530  0.82540  0.03490  1.0000
  C   C30       1.0  0.76440  0.79170  0.10750  1.0000
  C   C31       1.0  0.78620  0.73870  0.13120  1.0000
  H   H21       1.0  0.78700  0.73630  0.16870  1.0000
  C   C32       1.0  0.80770  0.68740  0.10100  1.0000
  H   H22       1.0  0.82420  0.65290  0.11750  1.0000
  C   C33       1.0  0.80320  0.69030  0.04610  1.0000
  H   H23       1.0  0.81710  0.65700  0.02500  1.0000
  C   C34       1.0  0.73600  0.71200  0.94440  1.0000
  C   C35       1.0  0.70530  0.68190  0.97870  1.0000
  H   H24       1.0  0.70670  0.67870  0.01610  1.0000
  C   C36       1.0  0.67480  0.65990  0.94860  1.0000
  H   H25       1.0  0.65040  0.63820  0.96030  1.0000
  C   C37       1.0  0.68590  0.67500  0.89500  1.0000
  C   C38       1.0  0.66110  0.65850  0.85310  1.0000
  C   C39       1.0  0.62330  0.62020  0.85970  1.0000
  C   C40       1.0  0.62070  0.54910  0.85330  1.0000
  H   H26       1.0  0.64570  0.52510  0.84710  1.0000
  C   C41       1.0  0.58760  0.51070  0.85480  1.0000
  C   C42       1.0  0.55340  0.54680  0.87400  1.0000
  H   H27       1.0  0.52890  0.52120  0.87910  1.0000
  C   C43       1.0  0.55310  0.61820  0.88610  1.0000
  H   H28       1.0  0.52980  0.64060  0.90050  1.0000
  C   C44       1.0  0.58860  0.65370  0.87590  1.0000
  H   H29       1.0  0.58910  0.70300  0.88010  1.0000
  C   C45       1.0  0.20480  0.18560  0.18260  1.0000
  H   H30       1.0  0.20730  0.17770  0.14570  1.0000
  C   C46       1.0  0.17070  0.16890  0.21500  1.0000
  H   H31       1.0  0.14570  0.14860  0.20380  1.0000
  C   C47       1.0  0.18130  0.18810  0.26610  1.0000
  C   C48       1.0  0.15620  0.17850  0.30860  1.0000
  C   C49       1.0  0.11430  0.14380  0.30050  1.0000
  C   C50       1.0  0.10930  0.07560  0.29440  1.0000
  H   H32       1.0  0.13280  0.04690  0.29860  1.0000
  C   C51       1.0  0.07460  0.04440  0.28300  1.0000
  C   C52       1.0  0.03640  0.08170  0.28530  1.0000
  H   H33       1.0  0.01040  0.05980  0.28480  1.0000
  C   C53       1.0  0.04240  0.15550  0.28850  1.0000
  H   H34       1.0  0.01990  0.18560  0.28180  1.0000
  C   C54       1.0  0.07810  0.18290  0.30030  1.0000
  H   H35       1.0  0.07940  0.23100  0.30910  1.0000
  C   C55       1.0  0.16610  0.19770  0.35960  1.0000
  C   C56       1.0  0.14100  0.18350  0.40540  1.0000
  H   H36       1.0  0.11470  0.16260  0.40550  1.0000
  C   C57       1.0  0.16120  0.20460  0.44630  1.0000
  H   H37       1.0  0.15190  0.20200  0.48180  1.0000
  C   C58       1.0  0.20000  0.23250  0.42980  1.0000
  C   C59       1.0  0.22870  0.26050  0.46390  1.0000
  C   C60       1.0  0.22140  0.25920  0.52100  1.0000
  C   C61       1.0  0.23910  0.21000  0.55170  1.0000
  H   H38       1.0  0.25470  0.17460  0.53490  1.0000
  C   C62       1.0  0.23560  0.20830  0.60750  1.0000
  C   C63       1.0  0.21380  0.26130  0.63120  1.0000
  H   H39       1.0  0.21300  0.26370  0.66870  1.0000
  C   C64       1.0  0.19230  0.31260  0.60100  1.0000
  H   H40       1.0  0.17580  0.34710  0.61750  1.0000
  C   C65       1.0  0.19680  0.30970  0.54610  1.0000
  H   H41       1.0  0.18290  0.34300  0.52500  1.0000
  C   C66       1.0  0.26400  0.28800  0.44440  1.0000
  C   C67       1.0  0.29470  0.31810  0.47870  1.0000
  H   H42       1.0  0.29330  0.32130  0.51610  1.0000
  C   C68       1.0  0.32520  0.34010  0.44860  1.0000
  H   H43       1.0  0.34960  0.36180  0.46030  1.0000
  C   C69       1.0  0.31410  0.32500  0.39500  1.0000
  C   C70       1.0  0.33890  0.34150  0.35310  1.0000
  C   C71       1.0  0.37670  0.37980  0.35970  1.0000
  C   C72       1.0  0.37930  0.45090  0.35330  1.0000
  H   H44       1.0  0.35430  0.47490  0.34710  1.0000
  C   C73       1.0  0.41240  0.48930  0.35480  1.0000
  C   C74       1.0  0.44660  0.45320  0.37400  1.0000
  H   H45       1.0  0.47110  0.47880  0.37910  1.0000
  C   C75       1.0  0.44690  0.38180  0.38610  1.0000
  H   H46       1.0  0.47020  0.35940  0.40050  1.0000
  C   C76       1.0  0.41140  0.34630  0.37590  1.0000
  H   H47       1.0  0.41090  0.29700  0.38010  1.0000
  P   P5        1.0  0.28683  0.36410  0.01238  1.0000
  P   P6        1.0  0.07028  0.95040  0.26850  1.0000
  P   P7        1.0  0.25645  0.13770  0.64443  1.0000
  P   P8        1.0  0.41372  0.58230  0.34130  1.0000
  O   O13       1.0  0.29730  0.34190  0.95750  1.0000
  O   O14       1.0  0.24340  0.39210  0.01760  1.0000
  H   H48       1.0  0.22750  0.37170  0.99470  1.0000
  O   O15       1.0  0.31640  0.41940  0.03360  1.0000
  O   O16       1.0  0.02940  0.92800  0.27790  1.0000
  O   O17       1.0  0.10420  0.91670  0.30700  1.0000
  H   H49       1.0  0.12150  0.89520  0.28840  1.0000
  O   O18       1.0  0.07810  0.93310  0.20880  1.0000
  O   O19       1.0  0.24060  0.07150  0.62020  1.0000
  O   O20       1.0  0.24550  0.14480  0.70160  1.0000
  O   O21       1.0  0.30290  0.14170  0.63490  1.0000
  H   H50       1.0  0.31520  0.13910  0.66400  1.0000
  O   O22       1.0  0.36930  0.60520  0.32950  1.0000
  H   H51       1.0  0.35980  0.62290  0.35890  1.0000
  O   O23       1.0  0.43230  0.61400  0.38990  1.0000
  H   H52       1.0  0.43360  0.65750  0.38630  1.0000
  O   O24       1.0  0.43940  0.58740  0.29080  1.0000
  N   N5        1.0  0.29150  0.29040  0.28670  1.0000
  N   N6        1.0  0.21960  0.21940  0.26910  1.0000
  N   N7        1.0  0.20180  0.22760  0.37620  1.0000
  N   N8        1.0  0.27620  0.29030  0.39280  1.0000
  C   C77       1.0  0.32650  0.32740  0.30120  1.0000
  C   C78       1.0  0.35130  0.34250  0.25580  1.0000
  H   H53       1.0  0.37650  0.36690  0.25630  1.0000
  C   C79       1.0  0.33250  0.31610  0.21200  1.0000
  H   H54       1.0  0.34160  0.31850  0.17630  1.0000
  C   C80       1.0  0.29630  0.28400  0.23190  1.0000
  C   C81       1.0  0.26810  0.24610  0.19920  1.0000
  C   C82       1.0  0.28140  0.23950  0.14260  1.0000
  C   C83       1.0  0.28000  0.29530  0.10850  1.0000
  H   H55       1.0  0.27210  0.33950  0.12210  1.0000
  C   C84       1.0  0.28960  0.29020  0.05470  1.0000
  C   C85       1.0  0.30160  0.22450  0.03720  1.0000
  H   H56       1.0  0.30730  0.21830  0.00070  1.0000
  C   C86       1.0  0.30550  0.16790  0.07050  1.0000
  H   H57       1.0  0.31560  0.12440  0.05790  1.0000
  C   C87       1.0  0.29440  0.17630  0.12170  1.0000
  H   H58       1.0  0.29570  0.13690  0.14450  1.0000
  C   C88       1.0  0.23460  0.21680  0.21680  1.0000
  P   P9        1.0  0.21317  0.86410  0.51238  1.0000
  P   P10       1.0  0.42972  0.45040  0.76850  1.0000
  P   P11       1.0  0.24355  0.63770  0.14443  1.0000
  P   P12       1.0  0.08628  0.08230  0.84130  1.0000
  O   O25       1.0  0.20270  0.84190  0.45750  1.0000
  O   O26       1.0  0.25660  0.89210  0.51760  1.0000
  H   H59       1.0  0.27250  0.87170  0.49470  1.0000
  O   O27       1.0  0.18360  0.91940  0.53360  1.0000
  O   O28       1.0  0.47060  0.42800  0.77790  1.0000
  O   O29       1.0  0.39580  0.41670  0.80700  1.0000
  H   H60       1.0  0.37850  0.39520  0.78840  1.0000
  O   O30       1.0  0.42190  0.43310  0.70880  1.0000
  O   O31       1.0  0.25940  0.57150  0.12020  1.0000
  O   O32       1.0  0.25450  0.64480  0.20160  1.0000
  O   O33       1.0  0.19710  0.64170  0.13490  1.0000
  H   H61       1.0  0.18480  0.63910  0.16400  1.0000
  O   O34       1.0  0.13070  0.10520  0.82950  1.0000
  H   H62       1.0  0.14020  0.12290  0.85890  1.0000
  O   O35       1.0  0.06770  0.11400  0.88990  1.0000
  H   H63       1.0  0.06640  0.15750  0.88630  1.0000
  O   O36       1.0  0.06060  0.08740  0.79080  1.0000
  N   N9        1.0  0.20850  0.79040  0.78670  1.0000
  N   N10       1.0  0.28040  0.71940  0.76910  1.0000
  N   N11       1.0  0.29820  0.72760  0.87620  1.0000
  N   N12       1.0  0.22380  0.79030  0.89280  1.0000
  C   C89       1.0  0.17350  0.82740  0.80120  1.0000
  C   C90       1.0  0.14870  0.84250  0.75580  1.0000
  H   H64       1.0  0.12350  0.86690  0.75630  1.0000
  C   C91       1.0  0.16750  0.81610  0.71200  1.0000
  H   H65       1.0  0.15840  0.81850  0.67630  1.0000
  C   C92       1.0  0.20370  0.78400  0.73190  1.0000
  C   C93       1.0  0.23190  0.74610  0.69920  1.0000
  C   C94       1.0  0.21860  0.73950  0.64260  1.0000
  C   C95       1.0  0.22000  0.79530  0.60850  1.0000
  H   H66       1.0  0.22790  0.83950  0.62210  1.0000
  C   C96       1.0  0.21040  0.79020  0.55470  1.0000
  C   C97       1.0  0.19840  0.72450  0.53720  1.0000
  H   H67       1.0  0.19270  0.71830  0.50070  1.0000
  C   C98       1.0  0.19450  0.66790  0.57050  1.0000
  H   H68       1.0  0.18440  0.62440  0.55790  1.0000
  C   C99       1.0  0.20560  0.67630  0.62170  1.0000
  H   H69       1.0  0.20430  0.63690  0.64450  1.0000
  C   C100      1.0  0.26540  0.71680  0.71680  1.0000
  C   C101      1.0  0.29520  0.68560  0.68260  1.0000
  H   H70       1.0  0.29270  0.67770  0.64570  1.0000
  C   C102      1.0  0.32930  0.66890  0.71500  1.0000
  H   H71       1.0  0.35430  0.64860  0.70380  1.0000
  C   C103      1.0  0.31870  0.68810  0.76610  1.0000
  C   C104      1.0  0.34380  0.67850  0.80860  1.0000
  C   C105      1.0  0.38570  0.64380  0.80050  1.0000
  C   C106      1.0  0.39070  0.57560  0.79440  1.0000
  H   H72       1.0  0.36720  0.54690  0.79860  1.0000
  C   C107      1.0  0.42540  0.54440  0.78300  1.0000
  C   C108      1.0  0.46360  0.58170  0.78530  1.0000
  H   H73       1.0  0.48960  0.55980  0.78480  1.0000
  C   C109      1.0  0.45760  0.65550  0.78850  1.0000
  H   H74       1.0  0.48010  0.68560  0.78180  1.0000
  C   C110      1.0  0.42190  0.68290  0.80030  1.0000
  H   H75       1.0  0.42060  0.73100  0.80910  1.0000
  C   C111      1.0  0.33390  0.69770  0.85960  1.0000
  C   C112      1.0  0.35900  0.68350  0.90540  1.0000
  H   H76       1.0  0.38530  0.66260  0.90550  1.0000
  C   C113      1.0  0.33880  0.70460  0.94630  1.0000
  H   H77       1.0  0.34810  0.70200  0.98180  1.0000
  C   C114      1.0  0.30000  0.73250  0.92980  1.0000
  C   C115      1.0  0.27130  0.76050  0.96390  1.0000
  C   C116      1.0  0.27860  0.75920  0.02100  1.0000
  C   C117      1.0  0.26090  0.71000  0.05170  1.0000
  H   H78       1.0  0.24530  0.67460  0.03490  1.0000
  C   C118      1.0  0.26440  0.70830  0.10750  1.0000
  C   C119      1.0  0.28620  0.76130  0.13120  1.0000
  H   H79       1.0  0.28700  0.76370  0.16870  1.0000
  C   C120      1.0  0.30770  0.81260  0.10100  1.0000
  H   H80       1.0  0.32420  0.84710  0.11750  1.0000
  C   C121      1.0  0.30320  0.80970  0.04610  1.0000
  H   H81       1.0  0.31710  0.84300  0.02500  1.0000
  C   C122      1.0  0.23600  0.78800  0.94440  1.0000
  C   C123      1.0  0.20530  0.81810  0.97870  1.0000
  H   H82       1.0  0.20670  0.82130  0.01610  1.0000
  C   C124      1.0  0.17480  0.84010  0.94860  1.0000
  H   H83       1.0  0.15040  0.86180  0.96030  1.0000
  C   C125      1.0  0.18590  0.82500  0.89500  1.0000
  C   C126      1.0  0.16110  0.84150  0.85310  1.0000
  C   C127      1.0  0.12330  0.87980  0.85970  1.0000
  C   C128      1.0  0.12070  0.95090  0.85330  1.0000
  H   H84       1.0  0.14570  0.97490  0.84710  1.0000
  C   C129      1.0  0.08760  0.98930  0.85480  1.0000
  C   C130      1.0  0.05340  0.95320  0.87400  1.0000
  H   H85       1.0  0.02890  0.97880  0.87910  1.0000
  C   C131      1.0  0.05310  0.88180  0.88610  1.0000
  H   H86       1.0  0.02980  0.85940  0.90050  1.0000
  C   C132      1.0  0.08860  0.84630  0.87590  1.0000
  H   H87       1.0  0.08910  0.79700  0.88010  1.0000
  C   C133      1.0  0.82650  0.17260  0.30120  1.0000
  C   C134      1.0  0.85130  0.15750  0.25580  1.0000
  H   H88       1.0  0.87650  0.13310  0.25630  1.0000
  C   C135      1.0  0.83250  0.18390  0.21200  1.0000
  H   H89       1.0  0.84160  0.18150  0.17630  1.0000
  C   C136      1.0  0.79630  0.21600  0.23190  1.0000
  C   C137      1.0  0.76810  0.25390  0.19920  1.0000
  C   C138      1.0  0.78140  0.26050  0.14260  1.0000
  C   C139      1.0  0.78000  0.20470  0.10850  1.0000
  H   H90       1.0  0.77210  0.16050  0.12210  1.0000
  C   C140      1.0  0.78960  0.20980  0.05470  1.0000
  C   C141      1.0  0.80160  0.27550  0.03720  1.0000
  H   H91       1.0  0.80730  0.28170  0.00070  1.0000
  C   C142      1.0  0.80550  0.33210  0.07050  1.0000
  H   H92       1.0  0.81560  0.37560  0.05790  1.0000
  C   C143      1.0  0.79440  0.32370  0.12170  1.0000
  H   H93       1.0  0.79570  0.36310  0.14450  1.0000
  C   C144      1.0  0.73460  0.28320  0.21680  1.0000
  C   C145      1.0  0.70480  0.31440  0.18260  1.0000
  H   H94       1.0  0.70730  0.32230  0.14570  1.0000
  C   C146      1.0  0.67070  0.33110  0.21500  1.0000
  H   H95       1.0  0.64570  0.35140  0.20380  1.0000
  C   C147      1.0  0.68130  0.31190  0.26610  1.0000
  C   C148      1.0  0.65620  0.32150  0.30860  1.0000
  C   C149      1.0  0.61430  0.35620  0.30050  1.0000
  C   C150      1.0  0.60930  0.42440  0.29440  1.0000
  H   H96       1.0  0.63280  0.45310  0.29860  1.0000
  C   C151      1.0  0.57460  0.45560  0.28300  1.0000
  C   C152      1.0  0.53640  0.41830  0.28530  1.0000
  H   H97       1.0  0.51040  0.44020  0.28480  1.0000
  C   C153      1.0  0.54240  0.34450  0.28850  1.0000
  H   H98       1.0  0.51990  0.31440  0.28180  1.0000
  C   C154      1.0  0.57810  0.31710  0.30030  1.0000
  H   H99       1.0  0.57940  0.26900  0.30910  1.0000
  C   C155      1.0  0.66610  0.30230  0.35960  1.0000
  C   C156      1.0  0.64100  0.31650  0.40540  1.0000
  H   H100      1.0  0.61470  0.33740  0.40550  1.0000
  C   C157      1.0  0.66120  0.29540  0.44630  1.0000
  H   H101      1.0  0.65190  0.29800  0.48180  1.0000
  C   C158      1.0  0.70000  0.26750  0.42980  1.0000
  C   C159      1.0  0.72870  0.23950  0.46390  1.0000
  C   C160      1.0  0.72140  0.24080  0.52100  1.0000
  C   C161      1.0  0.73910  0.29000  0.55170  1.0000
  H   H102      1.0  0.75470  0.32540  0.53490  1.0000
  C   C162      1.0  0.73560  0.29170  0.60750  1.0000
  C   C163      1.0  0.71380  0.23870  0.63120  1.0000
  H   H103      1.0  0.71300  0.23630  0.66870  1.0000
  C   C164      1.0  0.69230  0.18740  0.60100  1.0000
  H   H104      1.0  0.67580  0.15290  0.61750  1.0000
  C   C165      1.0  0.69680  0.19030  0.54610  1.0000
  H   H105      1.0  0.68290  0.15700  0.52500  1.0000
  C   C166      1.0  0.76400  0.21200  0.44440  1.0000
  C   C167      1.0  0.79470  0.18190  0.47870  1.0000
  H   H106      1.0  0.79330  0.17870  0.51610  1.0000
  C   C168      1.0  0.82520  0.15990  0.44860  1.0000
  H   H107      1.0  0.84960  0.13820  0.46030  1.0000
  C   C169      1.0  0.81410  0.17500  0.39500  1.0000
  C   C170      1.0  0.83890  0.15850  0.35310  1.0000
  C   C171      1.0  0.87670  0.12020  0.35970  1.0000
  C   C172      1.0  0.87930  0.04910  0.35330  1.0000
  H   H108      1.0  0.85430  0.02510  0.34710  1.0000
  C   C173      1.0  0.91240  0.01070  0.35480  1.0000
  C   C174      1.0  0.94660  0.04680  0.37400  1.0000
  H   H109      1.0  0.97110  0.02120  0.37910  1.0000
  C   C175      1.0  0.94690  0.11820  0.38610  1.0000
  H   H110      1.0  0.97020  0.14060  0.40050  1.0000
  C   C176      1.0  0.91140  0.15370  0.37590  1.0000
  H   H111      1.0  0.91090  0.20300  0.38010  1.0000
  P   P13       1.0  0.78683  0.13590  0.01238  1.0000
  P   P14       1.0  0.57028  0.54960  0.26850  1.0000
  P   P15       1.0  0.75645  0.36230  0.64443  1.0000
  P   P16       1.0  0.91372  0.91770  0.34130  1.0000
  O   O37       1.0  0.79730  0.15810  0.95750  1.0000
  O   O38       1.0  0.74340  0.10790  0.01760  1.0000
  H   H112      1.0  0.72750  0.12830  0.99470  1.0000
  O   O39       1.0  0.81640  0.08060  0.03360  1.0000
  O   O40       1.0  0.52940  0.57200  0.27790  1.0000
  O   O41       1.0  0.60420  0.58330  0.30700  1.0000
  H   H113      1.0  0.62150  0.60480  0.28840  1.0000
  O   O42       1.0  0.57810  0.56690  0.20880  1.0000
  O   O43       1.0  0.74060  0.42850  0.62020  1.0000
  O   O44       1.0  0.74550  0.35520  0.70160  1.0000
  O   O45       1.0  0.80290  0.35830  0.63490  1.0000
  H   H114      1.0  0.81520  0.36090  0.66400  1.0000
  O   O46       1.0  0.86930  0.89480  0.32950  1.0000
  H   H115      1.0  0.85980  0.87710  0.35890  1.0000
  O   O47       1.0  0.93230  0.88600  0.38990  1.0000
  H   H116      1.0  0.93360  0.84250  0.38630  1.0000
  O   O48       1.0  0.93940  0.91260  0.29080  1.0000
  N   N13       1.0  0.79150  0.20960  0.28670  1.0000
  N   N14       1.0  0.71960  0.28060  0.26910  1.0000
  N   N15       1.0  0.70180  0.27240  0.37620  1.0000
  N   N16       1.0  0.77620  0.20970  0.39280  1.0000
  P   P17       1.0  0.81565  0.60917  0.40228  1.0000
  P   P18       1.0  0.91335  0.10110  0.09142  1.0000
  P   P19       1.0  0.14838  0.60650  0.26160  1.0000
  P   P20       1.0  0.01439  0.11260  0.62840  1.0000
  O   O49       1.0  0.77770  0.63220  0.37490  1.0000
  O   O50       1.0  0.85430  0.62750  0.37600  1.0000
  O   O51       1.0  0.81660  0.63700  0.45930  1.0000
  O   O52       1.0  0.86900  0.07920  0.10420  1.0000
  H   H117      1.0  0.85510  0.07980  0.07440  1.0000
  O   O53       1.0  0.92200  0.09420  0.03440  1.0000
  O   O54       1.0  0.94150  0.05730  0.12670  1.0000
  O   O55       1.0  0.14550  0.62400  0.20630  1.0000
  O   O56       1.0  0.18470  0.63500  0.29040  1.0000
  O   O57       1.0  0.10810  0.62810  0.28920  1.0000
  H   H118      1.0  0.09400  0.65190  0.26380  1.0000
  O   O58       1.0  0.03470  0.05950  0.59210  1.0000
  H   H119      1.0  0.04320  0.02590  0.61150  1.0000
  O   O59       1.0  0.03060  0.10650  0.68330  1.0000
  O   O60       1.0  0.96830  0.10980  0.62630  1.0000
  H   H120      1.0  0.96000  0.07500  0.64350  1.0000
  N   N17       1.0  0.95630  0.32950  0.41810  1.0000
  N   N18       1.0  0.93050  0.33230  0.31750  1.0000
  N   N19       1.0  0.00790  0.33270  0.28450  1.0000
  N   N20       1.0  0.03330  0.33470  0.38530  1.0000
  C   C177      1.0  0.97270  0.31160  0.46650  1.0000
  C   C178      1.0  0.94380  0.31990  0.50750  1.0000
  H   H121      1.0  0.94740  0.30930  0.54390  1.0000
  C   C179      1.0  0.91000  0.34610  0.48460  1.0000
  H   H122      1.0  0.88590  0.35990  0.50270  1.0000
  C   C180      1.0  0.91610  0.34980  0.42990  1.0000
  C   C181      1.0  0.88770  0.36890  0.39140  1.0000
  C   C182      1.0  0.85010  0.40520  0.40630  1.0000
  C   C183      1.0  0.84960  0.47670  0.39930  1.0000
  H   H123      1.0  0.87370  0.49990  0.38770  1.0000
  C   C184      1.0  0.81360  0.51600  0.40900  1.0000
  C   C185      1.0  0.77900  0.48210  0.42700  1.0000
  H   H124      1.0  0.75490  0.50780  0.43480  1.0000
  C   C186      1.0  0.77980  0.41000  0.43350  1.0000
  H   H125      1.0  0.75580  0.38680  0.44520  1.0000
  C   C187      1.0  0.81420  0.37130  0.42330  1.0000
  H   H126      1.0  0.81380  0.32210  0.42780  1.0000
  C   C188      1.0  0.89340  0.35440  0.33930  1.0000
  C   C189      1.0  0.86290  0.35220  0.29950  1.0000
  H   H127      1.0  0.83540  0.36690  0.30430  1.0000
  C   C190      1.0  0.87760  0.32740  0.25510  1.0000
  H   H128      1.0  0.86310  0.31830  0.22330  1.0000
  C   C191      1.0  0.92200  0.31630  0.26540  1.0000
  C   C192      1.0  0.95080  0.30150  0.22710  1.0000
  C   C193      1.0  0.93700  0.28210  0.17350  1.0000
  C   C194      1.0  0.93380  0.21000  0.16020  1.0000
  H   H129      1.0  0.94100  0.17500  0.18510  1.0000
  C   C195      1.0  0.91950  0.19160  0.10880  1.0000
  C   C196      1.0  0.90870  0.24270  0.07550  1.0000
  H   H130      1.0  0.89860  0.22980  0.04160  1.0000
  C   C197      1.0  0.91130  0.31100  0.08690  1.0000
  H   H131      1.0  0.90330  0.34510  0.06170  1.0000
  C   C198      1.0  0.92590  0.33090  0.13610  1.0000
  H   H132      1.0  0.92840  0.37920  0.14420  1.0000
  C   C199      1.0  0.99140  0.31390  0.23440  1.0000
  C   C200      1.0  0.02150  0.32300  0.19360  1.0000
  H   H133      1.0  0.01870  0.31280  0.15710  1.0000
  C   C201      1.0  0.05570  0.35010  0.21920  1.0000
  H   H134      1.0  0.08070  0.36260  0.20260  1.0000
  C   C202      1.0  0.04750  0.35580  0.27280  1.0000
  C   C203      1.0  0.07760  0.37350  0.30800  1.0000
  C   C204      1.0  0.11490  0.40640  0.29240  1.0000
  C   C205      1.0  0.11370  0.47810  0.28380  1.0000
  H   H135      1.0  0.08890  0.50300  0.28830  1.0000
  C   C206      1.0  0.14930  0.51330  0.26840  1.0000
  C   C207      1.0  0.18490  0.47710  0.25860  1.0000
  H   H136      1.0  0.20890  0.50170  0.24850  1.0000
  C   C208      1.0  0.18600  0.40570  0.26330  1.0000
  H   H137      1.0  0.21000  0.38040  0.25420  1.0000
  C   C209      1.0  0.15060  0.37010  0.28220  1.0000
  H   H138      1.0  0.15150  0.32110  0.28770  1.0000
  C   C210      1.0  0.07110  0.35910  0.36370  1.0000
  C   C211      1.0  0.10250  0.35270  0.40270  1.0000
  H   H139      1.0  0.13060  0.36360  0.39830  1.0000
  C   C212      1.0  0.08540  0.32920  0.44490  1.0000
  H   H140      1.0  0.09930  0.32070  0.47730  1.0000
  C   C213      1.0  0.04360  0.31780  0.43690  1.0000
  C   C214      1.0  0.01380  0.30250  0.47490  1.0000
  C   C215      1.0  0.02860  0.28030  0.52880  1.0000
  C   C216      1.0  0.01710  0.21560  0.55220  1.0000
  H   H141      1.0  0.00040  0.18510  0.53210  1.0000
  C   C217      1.0  0.02880  0.19400  0.60230  1.0000
  C   C218      1.0  0.05190  0.24100  0.63020  1.0000
  H   H142      1.0  0.06030  0.22880  0.66500  1.0000
  C   C219      1.0  0.06410  0.30730  0.60970  1.0000
  H   H143      1.0  0.08090  0.33720  0.63030  1.0000
  C   C220      1.0  0.05180  0.32740  0.56120  1.0000
  H   H144      1.0  0.05840  0.37270  0.54840  1.0000
  P   P21       1.0  0.18435  0.39083  0.90228  1.0000
  P   P22       1.0  0.08665  0.89890  0.59142  1.0000
  P   P23       1.0  0.85162  0.39350  0.76160  1.0000
  P   P24       1.0  0.98561  0.88740  0.12840  1.0000
  O   O61       1.0  0.22230  0.36780  0.87490  1.0000
  O   O62       1.0  0.14570  0.37250  0.87600  1.0000
  O   O63       1.0  0.18340  0.36300  0.95930  1.0000
  O   O64       1.0  0.13100  0.92080  0.60420  1.0000
  H   H145      1.0  0.14490  0.92020  0.57440  1.0000
  O   O65       1.0  0.07800  0.90580  0.53440  1.0000
  O   O66       1.0  0.05850  0.94270  0.62670  1.0000
  O   O67       1.0  0.85450  0.37600  0.70630  1.0000
  O   O68       1.0  0.81530  0.36500  0.79040  1.0000
  O   O69       1.0  0.89190  0.37190  0.78920  1.0000
  H   H146      1.0  0.90600  0.34810  0.76380  1.0000
  O   O70       1.0  0.96530  0.94050  0.09210  1.0000
  H   H147      1.0  0.95680  0.97410  0.11150  1.0000
  O   O71       1.0  0.96940  0.89350  0.18330  1.0000
  O   O72       1.0  0.03170  0.89020  0.12630  1.0000
  H   H148      1.0  0.04000  0.92500  0.14350  1.0000
  N   N21       1.0  0.04370  0.67050  0.91810  1.0000
  N   N22       1.0  0.06950  0.66770  0.81750  1.0000
  N   N23       1.0  0.99210  0.66730  0.78450  1.0000
  N   N24       1.0  0.96670  0.66530  0.88530  1.0000
  C   C221      1.0  0.02730  0.68840  0.96650  1.0000
  C   C222      1.0  0.05620  0.68010  0.00750  1.0000
  H   H149      1.0  0.05260  0.69070  0.04390  1.0000
  C   C223      1.0  0.09000  0.65390  0.98460  1.0000
  H   H150      1.0  0.11410  0.64010  0.00270  1.0000
  C   C224      1.0  0.08390  0.65020  0.92990  1.0000
  C   C225      1.0  0.11230  0.63110  0.89140  1.0000
  C   C226      1.0  0.14990  0.59480  0.90630  1.0000
  C   C227      1.0  0.15040  0.52330  0.89930  1.0000
  H   H151      1.0  0.12630  0.50010  0.88770  1.0000
  C   C228      1.0  0.18640  0.48400  0.90900  1.0000
  C   C229      1.0  0.22100  0.51790  0.92700  1.0000
  H   H152      1.0  0.24510  0.49220  0.93480  1.0000
  C   C230      1.0  0.22020  0.59000  0.93350  1.0000
  H   H153      1.0  0.24420  0.61320  0.94520  1.0000
  C   C231      1.0  0.18580  0.62870  0.92330  1.0000
  H   H154      1.0  0.18620  0.67790  0.92780  1.0000
  C   C232      1.0  0.10660  0.64560  0.83930  1.0000
  C   C233      1.0  0.13710  0.64780  0.79950  1.0000
  H   H155      1.0  0.16460  0.63310  0.80430  1.0000
  C   C234      1.0  0.12240  0.67260  0.75510  1.0000
  H   H156      1.0  0.13690  0.68170  0.72330  1.0000
  C   C235      1.0  0.07800  0.68370  0.76540  1.0000
  C   C236      1.0  0.04920  0.69850  0.72710  1.0000
  C   C237      1.0  0.06300  0.71790  0.67350  1.0000
  C   C238      1.0  0.06620  0.79000  0.66020  1.0000
  H   H157      1.0  0.05900  0.82500  0.68510  1.0000
  C   C239      1.0  0.08050  0.80840  0.60880  1.0000
  C   C240      1.0  0.09130  0.75730  0.57550  1.0000
  H   H158      1.0  0.10140  0.77020  0.54160  1.0000
  C   C241      1.0  0.08870  0.68900  0.58690  1.0000
  H   H159      1.0  0.09670  0.65490  0.56170  1.0000
  C   C242      1.0  0.07410  0.66910  0.63610  1.0000
  H   H160      1.0  0.07160  0.62080  0.64420  1.0000
  C   C243      1.0  0.00860  0.68610  0.73440  1.0000
  C   C244      1.0  0.97850  0.67700  0.69360  1.0000
  H   H161      1.0  0.98130  0.68720  0.65710  1.0000
  C   C245      1.0  0.94430  0.64990  0.71920  1.0000
  H   H162      1.0  0.91930  0.63740  0.70260  1.0000
  C   C246      1.0  0.95250  0.64420  0.77280  1.0000
  C   C247      1.0  0.92240  0.62650  0.80800  1.0000
  C   C248      1.0  0.88510  0.59360  0.79240  1.0000
  C   C249      1.0  0.88630  0.52190  0.78380  1.0000
  H   H163      1.0  0.91110  0.49700  0.78830  1.0000
  C   C250      1.0  0.85070  0.48670  0.76840  1.0000
  C   C251      1.0  0.81510  0.52290  0.75860  1.0000
  H   H164      1.0  0.79110  0.49830  0.74850  1.0000
  C   C252      1.0  0.81400  0.59430  0.76330  1.0000
  H   H165      1.0  0.79000  0.61960  0.75420  1.0000
  C   C253      1.0  0.84940  0.62990  0.78220  1.0000
  H   H166      1.0  0.84850  0.67890  0.78770  1.0000
  C   C254      1.0  0.92890  0.64090  0.86370  1.0000
  C   C255      1.0  0.89750  0.64730  0.90270  1.0000
  H   H167      1.0  0.86940  0.63640  0.89830  1.0000
  C   C256      1.0  0.91460  0.67080  0.94490  1.0000
  H   H168      1.0  0.90070  0.67930  0.97730  1.0000
  C   C257      1.0  0.95640  0.68220  0.93690  1.0000
  C   C258      1.0  0.98620  0.69750  0.97490  1.0000
  C   C259      1.0  0.97140  0.71970  0.02880  1.0000
  C   C260      1.0  0.98290  0.78440  0.05220  1.0000
  H   H169      1.0  0.99960  0.81490  0.03210  1.0000
  C   C261      1.0  0.97120  0.80600  0.10230  1.0000
  C   C262      1.0  0.94810  0.75900  0.13020  1.0000
  H   H170      1.0  0.93970  0.77120  0.16500  1.0000
  C   C263      1.0  0.93590  0.69270  0.10970  1.0000
  H   H171      1.0  0.91910  0.66280  0.13030  1.0000
  C   C264      1.0  0.94820  0.67260  0.06120  1.0000
  H   H172      1.0  0.94160  0.62730  0.04840  1.0000
  P   P25       1.0  0.31565  0.89083  0.40228  1.0000
  P   P26       1.0  0.41335  0.39890  0.09142  1.0000
  P   P27       1.0  0.64838  0.89350  0.26160  1.0000
  P   P28       1.0  0.51439  0.38740  0.62840  1.0000
  O   O73       1.0  0.27770  0.86780  0.37490  1.0000
  O   O74       1.0  0.35430  0.87250  0.37600  1.0000
  O   O75       1.0  0.31660  0.86300  0.45930  1.0000
  O   O76       1.0  0.36900  0.42080  0.10420  1.0000
  H   H173      1.0  0.35510  0.42020  0.07440  1.0000
  O   O77       1.0  0.42200  0.40580  0.03440  1.0000
  O   O78       1.0  0.44150  0.44270  0.12670  1.0000
  O   O79       1.0  0.64550  0.87600  0.20630  1.0000
  O   O80       1.0  0.68470  0.86500  0.29040  1.0000
  O   O81       1.0  0.60810  0.87190  0.28920  1.0000
  H   H174      1.0  0.59400  0.84810  0.26380  1.0000
  O   O82       1.0  0.53470  0.44050  0.59210  1.0000
  H   H175      1.0  0.54320  0.47410  0.61150  1.0000
  O   O83       1.0  0.53060  0.39350  0.68330  1.0000
  O   O84       1.0  0.46830  0.39020  0.62630  1.0000
  H   H176      1.0  0.46000  0.42500  0.64350  1.0000
  N   N25       1.0  0.45630  0.17050  0.41810  1.0000
  N   N26       1.0  0.43050  0.16770  0.31750  1.0000
  N   N27       1.0  0.50790  0.16730  0.28450  1.0000
  N   N28       1.0  0.53330  0.16530  0.38530  1.0000
  C   C265      1.0  0.47270  0.18840  0.46650  1.0000
  C   C266      1.0  0.44380  0.18010  0.50750  1.0000
  H   H177      1.0  0.44740  0.19070  0.54390  1.0000
  C   C267      1.0  0.41000  0.15390  0.48460  1.0000
  H   H178      1.0  0.38590  0.14010  0.50270  1.0000
  C   C268      1.0  0.41610  0.15020  0.42990  1.0000
  C   C269      1.0  0.38770  0.13110  0.39140  1.0000
  C   C270      1.0  0.35010  0.09480  0.40630  1.0000
  C   C271      1.0  0.34960  0.02330  0.39930  1.0000
  H   H179      1.0  0.37370  0.00010  0.38770  1.0000
  C   C272      1.0  0.31360  0.98400  0.40900  1.0000
  C   C273      1.0  0.27900  0.01790  0.42700  1.0000
  H   H180      1.0  0.25490  0.99220  0.43480  1.0000
  C   C274      1.0  0.27980  0.09000  0.43350  1.0000
  H   H181      1.0  0.25580  0.11320  0.44520  1.0000
  C   C275      1.0  0.31420  0.12870  0.42330  1.0000
  H   H182      1.0  0.31380  0.17790  0.42780  1.0000
  C   C276      1.0  0.39340  0.14560  0.33930  1.0000
  C   C277      1.0  0.36290  0.14780  0.29950  1.0000
  H   H183      1.0  0.33540  0.13310  0.30430  1.0000
  C   C278      1.0  0.37760  0.17260  0.25510  1.0000
  H   H184      1.0  0.36310  0.18170  0.22330  1.0000
  C   C279      1.0  0.42200  0.18370  0.26540  1.0000
  C   C280      1.0  0.45080  0.19850  0.22710  1.0000
  C   C281      1.0  0.43700  0.21790  0.17350  1.0000
  C   C282      1.0  0.43380  0.29000  0.16020  1.0000
  H   H185      1.0  0.44100  0.32500  0.18510  1.0000
  C   C283      1.0  0.41950  0.30840  0.10880  1.0000
  C   C284      1.0  0.40870  0.25730  0.07550  1.0000
  H   H186      1.0  0.39860  0.27020  0.04160  1.0000
  C   C285      1.0  0.41130  0.18900  0.08690  1.0000
  H   H187      1.0  0.40330  0.15490  0.06170  1.0000
  C   C286      1.0  0.42590  0.16910  0.13610  1.0000
  H   H188      1.0  0.42840  0.12080  0.14420  1.0000
  C   C287      1.0  0.49140  0.18610  0.23440  1.0000
  C   C288      1.0  0.52150  0.17700  0.19360  1.0000
  H   H189      1.0  0.51870  0.18720  0.15710  1.0000
  C   C289      1.0  0.55570  0.14990  0.21920  1.0000
  H   H190      1.0  0.58070  0.13740  0.20260  1.0000
  C   C290      1.0  0.54750  0.14420  0.27280  1.0000
  C   C291      1.0  0.57760  0.12650  0.30800  1.0000
  C   C292      1.0  0.61490  0.09360  0.29240  1.0000
  C   C293      1.0  0.61370  0.02190  0.28380  1.0000
  H   H191      1.0  0.58890  0.99700  0.28830  1.0000
  C   C294      1.0  0.64930  0.98670  0.26840  1.0000
  C   C295      1.0  0.68490  0.02290  0.25860  1.0000
  H   H192      1.0  0.70890  0.99830  0.24850  1.0000
  C   C296      1.0  0.68600  0.09430  0.26330  1.0000
  H   H193      1.0  0.71000  0.11960  0.25420  1.0000
  C   C297      1.0  0.65060  0.12990  0.28220  1.0000
  H   H194      1.0  0.65150  0.17890  0.28770  1.0000
  C   C298      1.0  0.57110  0.14090  0.36370  1.0000
  C   C299      1.0  0.60250  0.14730  0.40270  1.0000
  H   H195      1.0  0.63060  0.13640  0.39830  1.0000
  C   C300      1.0  0.58540  0.17080  0.44490  1.0000
  H   H196      1.0  0.59930  0.17930  0.47730  1.0000
  C   C301      1.0  0.54360  0.18220  0.43690  1.0000
  C   C302      1.0  0.51380  0.19750  0.47490  1.0000
  C   C303      1.0  0.52860  0.21970  0.52880  1.0000
  C   C304      1.0  0.51710  0.28440  0.55220  1.0000
  H   H197      1.0  0.50040  0.31490  0.53210  1.0000
  C   C305      1.0  0.52880  0.30600  0.60230  1.0000
  C   C306      1.0  0.55190  0.25900  0.63020  1.0000
  H   H198      1.0  0.56030  0.27120  0.66500  1.0000
  C   C307      1.0  0.56410  0.19270  0.60970  1.0000
  H   H199      1.0  0.58090  0.16280  0.63030  1.0000
  C   C308      1.0  0.55180  0.17260  0.56120  1.0000
  H   H200      1.0  0.55840  0.12730  0.54840  1.0000
  H   H201      1.0  0.48130  0.81280  0.65710  1.0000
  C   C309      1.0  0.44430  0.85010  0.71920  1.0000
  H   H202      1.0  0.41930  0.86260  0.70260  1.0000
  C   C310      1.0  0.45250  0.85580  0.77280  1.0000
  C   C311      1.0  0.42240  0.87350  0.80800  1.0000
  C   C312      1.0  0.38510  0.90640  0.79240  1.0000
  C   C313      1.0  0.38630  0.97810  0.78380  1.0000
  H   H203      1.0  0.41110  0.00300  0.78830  1.0000
  C   C314      1.0  0.35070  0.01330  0.76840  1.0000
  C   C315      1.0  0.31510  0.97710  0.75860  1.0000
  H   H204      1.0  0.29110  0.00170  0.74850  1.0000
  C   C316      1.0  0.31400  0.90570  0.76330  1.0000
  H   H205      1.0  0.29000  0.88040  0.75420  1.0000
  C   C317      1.0  0.34940  0.87010  0.78220  1.0000
  H   H206      1.0  0.34850  0.82110  0.78770  1.0000
  C   C318      1.0  0.42890  0.85910  0.86370  1.0000
  C   C319      1.0  0.39750  0.85270  0.90270  1.0000
  H   H207      1.0  0.36940  0.86360  0.89830  1.0000
  C   C320      1.0  0.41460  0.82920  0.94490  1.0000
  H   H208      1.0  0.40070  0.82070  0.97730  1.0000
  C   C321      1.0  0.45640  0.81780  0.93690  1.0000
  C   C322      1.0  0.48620  0.80250  0.97490  1.0000
  C   C323      1.0  0.47140  0.78030  0.02880  1.0000
  C   C324      1.0  0.48290  0.71560  0.05220  1.0000
  H   H209      1.0  0.49960  0.68510  0.03210  1.0000
  C   C325      1.0  0.47120  0.69400  0.10230  1.0000
  C   C326      1.0  0.44810  0.74100  0.13020  1.0000
  H   H210      1.0  0.43970  0.72880  0.16500  1.0000
  C   C327      1.0  0.43590  0.80730  0.10970  1.0000
  H   H211      1.0  0.41910  0.83720  0.13030  1.0000
  C   C328      1.0  0.44820  0.82740  0.06120  1.0000
  H   H212      1.0  0.44160  0.87270  0.04840  1.0000
  P   P29       1.0  0.68435  0.10917  0.90228  1.0000
  P   P30       1.0  0.58665  0.60110  0.59142  1.0000
  P   P31       1.0  0.35162  0.10650  0.76160  1.0000
  P   P32       1.0  0.48561  0.61260  0.12840  1.0000
  O   O85       1.0  0.72230  0.13220  0.87490  1.0000
  O   O86       1.0  0.64570  0.12750  0.87600  1.0000
  O   O87       1.0  0.68340  0.13700  0.95930  1.0000
  O   O88       1.0  0.63100  0.57920  0.60420  1.0000
  H   H213      1.0  0.64490  0.57980  0.57440  1.0000
  O   O89       1.0  0.57800  0.59420  0.53440  1.0000
  O   O90       1.0  0.55850  0.55730  0.62670  1.0000
  O   O91       1.0  0.35450  0.12400  0.70630  1.0000
  O   O92       1.0  0.31530  0.13500  0.79040  1.0000
  O   O93       1.0  0.39190  0.12810  0.78920  1.0000
  H   H214      1.0  0.40600  0.15190  0.76380  1.0000
  O   O94       1.0  0.46530  0.55950  0.09210  1.0000
  H   H215      1.0  0.45680  0.52590  0.11150  1.0000
  O   O95       1.0  0.46940  0.60650  0.18330  1.0000
  O   O96       1.0  0.53170  0.60980  0.12630  1.0000
  H   H216      1.0  0.54000  0.57500  0.14350  1.0000
  N   N29       1.0  0.54370  0.82950  0.91810  1.0000
  N   N30       1.0  0.56950  0.83230  0.81750  1.0000
  N   N31       1.0  0.49210  0.83270  0.78450  1.0000
  N   N32       1.0  0.46670  0.83470  0.88530  1.0000
  C   C329      1.0  0.52730  0.81160  0.96650  1.0000
  C   C330      1.0  0.55620  0.81990  0.00750  1.0000
  H   H217      1.0  0.55260  0.80930  0.04390  1.0000
  C   C331      1.0  0.59000  0.84610  0.98460  1.0000
  H   H218      1.0  0.61410  0.85990  0.00270  1.0000
  C   C332      1.0  0.58390  0.84980  0.92990  1.0000
  C   C333      1.0  0.61230  0.86890  0.89140  1.0000
  C   C334      1.0  0.64990  0.90520  0.90630  1.0000
  C   C335      1.0  0.65040  0.97670  0.89930  1.0000
  H   H219      1.0  0.62630  0.99990  0.88770  1.0000
  C   C336      1.0  0.68640  0.01600  0.90900  1.0000
  C   C337      1.0  0.72100  0.98210  0.92700  1.0000
  H   H220      1.0  0.74510  0.00780  0.93480  1.0000
  C   C338      1.0  0.72020  0.91000  0.93350  1.0000
  H   H221      1.0  0.74420  0.88680  0.94520  1.0000
  C   C339      1.0  0.68580  0.87130  0.92330  1.0000
  H   H222      1.0  0.68620  0.82210  0.92780  1.0000
  C   C340      1.0  0.60660  0.85440  0.83930  1.0000
  C   C341      1.0  0.63710  0.85220  0.79950  1.0000
  H   H223      1.0  0.66460  0.86690  0.80430  1.0000
  C   C342      1.0  0.62240  0.82740  0.75510  1.0000
  H   H224      1.0  0.63690  0.81830  0.72330  1.0000
  C   C343      1.0  0.57800  0.81630  0.76540  1.0000
  C   C344      1.0  0.54920  0.80150  0.72710  1.0000
  C   C345      1.0  0.56300  0.78210  0.67350  1.0000
  C   C346      1.0  0.56620  0.71000  0.66020  1.0000
  H   H225      1.0  0.55900  0.67500  0.68510  1.0000
  C   C347      1.0  0.58050  0.69160  0.60880  1.0000
  C   C348      1.0  0.59130  0.74270  0.57550  1.0000
  H   H226      1.0  0.60140  0.72980  0.54160  1.0000
  C   C349      1.0  0.58870  0.81100  0.58690  1.0000
  H   H227      1.0  0.59670  0.84510  0.56170  1.0000
  C   C350      1.0  0.57410  0.83090  0.63610  1.0000
  H   H228      1.0  0.57160  0.87920  0.64420  1.0000
  C   C351      1.0  0.50860  0.81390  0.73440  1.0000
  C   C352      1.0  0.47850  0.82300  0.69360  1.0000
  P   P33       1.0  0.02388  0.73615  0.29716  1.0000
  P   P34       1.0  0.69229  0.66911  0.28151  1.0000
  P   P35       1.0  0.72407  0.33448  0.87465  1.0000
  P   P36       1.0  0.05260  0.27040  0.95600  1.0000
  O   O97       1.0  0.99610  0.78040  0.26400  1.0000
  O   O98       1.0  0.02400  0.75480  0.35600  1.0000
  H   H229      1.0  0.99880  0.75570  0.36620  1.0000
  O   O99       1.0  0.06760  0.73760  0.28250  1.0000
  O   O100      1.0  0.71840  0.72030  0.25100  1.0000
  O   O101      1.0  0.69090  0.68460  0.34120  1.0000
  O   O102      1.0  0.64930  0.66730  0.26120  1.0000
  O   O103      1.0  0.72630  0.32430  0.81670  1.0000
  O   O104      1.0  0.74910  0.28410  0.90830  1.0000
  O   O105      1.0  0.67840  0.33200  0.89190  1.0000
  O   O106      1.0  0.04930  0.23030  0.90630  1.0000
  O   O107      1.0  0.03030  0.22260  0.00050  1.0000
  H   H230      1.0  0.04810  0.19290  0.01200  1.0000
  O   O108      1.0  0.09720  0.27200  0.96950  1.0000
  N   N33       1.0  0.93490  0.50640  0.10580  1.0000
  N   N34       1.0  0.87130  0.51890  0.17310  1.0000
  N   N35       1.0  0.81670  0.50820  0.09030  1.0000
  N   N36       1.0  0.88290  0.49160  0.02220  1.0000
  C   C353      1.0  0.96360  0.48580  0.06900  1.0000
  C   C354      1.0  0.00450  0.48890  0.08950  1.0000
  H   H231      1.0  0.02900  0.47590  0.07200  1.0000
  C   C355      1.0  0.00050  0.51500  0.14070  1.0000
  H   H232      1.0  0.02200  0.52540  0.16470  1.0000
  C   C356      1.0  0.95800  0.52300  0.15010  1.0000
  C   C357      1.0  0.94230  0.53900  0.19830  1.0000
  C   C358      1.0  0.97010  0.55910  0.24240  1.0000
  C   C359      1.0  0.98170  0.62780  0.24900  1.0000
  H   H233      1.0  0.97290  0.66230  0.22450  1.0000
  C   C360      1.0  0.00600  0.64610  0.29100  1.0000
  C   C361      1.0  0.01760  0.59550  0.32650  1.0000
  H   H234      1.0  0.03390  0.60870  0.35590  1.0000
  C   C362      1.0  0.00700  0.52850  0.32140  1.0000
  H   H235      1.0  0.01610  0.49510  0.34640  1.0000
  C   C363      1.0  0.98330  0.50840  0.28060  1.0000
  H   H236      1.0  0.97530  0.46090  0.27710  1.0000
  C   C364      1.0  0.90020  0.53410  0.20970  1.0000
  C   C365      1.0  0.88340  0.54120  0.26170  1.0000
  H   H237      1.0  0.89810  0.55210  0.29300  1.0000
  C   C366      1.0  0.84400  0.53000  0.25820  1.0000
  H   H238      1.0  0.82500  0.53060  0.28670  1.0000
  C   C367      1.0  0.83420  0.51640  0.20250  1.0000
  C   C368      1.0  0.79600  0.50980  0.18230  1.0000
  C   C369      1.0  0.76250  0.51290  0.22260  1.0000
  C   C370      1.0  0.74230  0.57550  0.22990  1.0000
  H   H239      1.0  0.74730  0.61310  0.20630  1.0000
  C   C371      1.0  0.71500  0.58420  0.27110  1.0000
  C   C372      1.0  0.70730  0.52940  0.30560  1.0000
  H   H240      1.0  0.68880  0.53560  0.33410  1.0000
  C   C373      1.0  0.72660  0.46520  0.29860  1.0000
  H   H241      1.0  0.72090  0.42750  0.32180  1.0000
  C   C374      1.0  0.75460  0.45690  0.25690  1.0000
  H   H242      1.0  0.76810  0.41350  0.25200  1.0000
  C   C375      1.0  0.78920  0.50820  0.12920  1.0000
  C   C376      1.0  0.74770  0.50820  0.10590  1.0000
  H   H243      1.0  0.72270  0.50680  0.12500  1.0000
  C   C377      1.0  0.75150  0.51060  0.05460  1.0000
  H   H244      1.0  0.72990  0.51280  0.02960  1.0000
  C   C378      1.0  0.79460  0.50930  0.04280  1.0000
  C   C379      1.0  0.81050  0.50270  0.99230  1.0000
  C   C380      1.0  0.78290  0.49540  0.94690  1.0000
  C   C381      1.0  0.76850  0.43120  0.93570  1.0000
  H   H245      1.0  0.77500  0.39320  0.95830  1.0000
  C   C382      1.0  0.74260  0.41940  0.88880  1.0000
  C   C383      1.0  0.73310  0.47590  0.85910  1.0000
  H   H246      1.0  0.71470  0.47030  0.83030  1.0000
  C   C384      1.0  0.74890  0.54110  0.86880  1.0000
  H   H247      1.0  0.74260  0.57870  0.84590  1.0000
  C   C385      1.0  0.77440  0.55220  0.91260  1.0000
  H   H248      1.0  0.78580  0.59690  0.91910  1.0000
  C   C386      1.0  0.85180  0.49310  0.98400  1.0000
  C   C387      1.0  0.86990  0.47790  0.93350  1.0000
  H   H249      1.0  0.85580  0.47610  0.90070  1.0000
  C   C388      1.0  0.90880  0.46690  0.94020  1.0000
  H   H250      1.0  0.92810  0.45610  0.91330  1.0000
  C   C389      1.0  0.91730  0.47410  0.99580  1.0000
  C   C390      1.0  0.95540  0.47000  0.01630  1.0000
  C   C391      1.0  0.99050  0.44710  0.98300  1.0000
  C   C392      1.0  0.00100  0.38100  0.98350  1.0000
  H   H251      1.0  0.98520  0.34890  0.00350  1.0000
  C   C393      1.0  0.03700  0.35530  0.95370  1.0000
  C   C394      1.0  0.05680  0.40220  0.92750  1.0000
  H   H252      1.0  0.08080  0.38750  0.90970  1.0000
  C   C395      1.0  0.04560  0.47640  0.92260  1.0000
  H   H253      1.0  0.05910  0.50880  0.90020  1.0000
  C   C396      1.0  0.01270  0.49290  0.95530  1.0000
  H   H254      1.0  0.00540  0.54070  0.95800  1.0000
  P   P37       1.0  0.97612  0.26385  0.79716  1.0000
  P   P38       1.0  0.30771  0.33089  0.78151  1.0000
  P   P39       1.0  0.27593  0.66552  0.37465  1.0000
  P   P40       1.0  0.94740  0.72960  0.45600  1.0000
  O   O109      1.0  0.00390  0.21960  0.76400  1.0000
  O   O110      1.0  0.97600  0.24520  0.85600  1.0000
  H   H255      1.0  0.00120  0.24430  0.86620  1.0000
  O   O111      1.0  0.93240  0.26240  0.78250  1.0000
  O   O112      1.0  0.28160  0.27970  0.75100  1.0000
  O   O113      1.0  0.30910  0.31540  0.84120  1.0000
  O   O114      1.0  0.35070  0.33270  0.76120  1.0000
  O   O115      1.0  0.27370  0.67570  0.31670  1.0000
  O   O116      1.0  0.25090  0.71590  0.40830  1.0000
  O   O117      1.0  0.32160  0.66800  0.39190  1.0000
  O   O118      1.0  0.95070  0.76970  0.40630  1.0000
  O   O119      1.0  0.96970  0.77740  0.50050  1.0000
  H   H256      1.0  0.95190  0.80710  0.51200  1.0000
  O   O120      1.0  0.90280  0.72800  0.46950  1.0000
  N   N37       1.0  0.06510  0.49360  0.60580  1.0000
  N   N38       1.0  0.12870  0.48110  0.67310  1.0000
  N   N39       1.0  0.18330  0.49180  0.59030  1.0000
  N   N40       1.0  0.11710  0.50840  0.52220  1.0000
  C   C397      1.0  0.03640  0.51420  0.56900  1.0000
  C   C398      1.0  0.99550  0.51110  0.58950  1.0000
  H   H257      1.0  0.97100  0.52410  0.57200  1.0000
  C   C399      1.0  0.99950  0.48500  0.64070  1.0000
  H   H258      1.0  0.97800  0.47460  0.66470  1.0000
  C   C400      1.0  0.04200  0.47700  0.65010  1.0000
  C   C401      1.0  0.05770  0.46100  0.69830  1.0000
  C   C402      1.0  0.02990  0.44090  0.74240  1.0000
  C   C403      1.0  0.01830  0.37220  0.74900  1.0000
  H   H259      1.0  0.02710  0.33770  0.72450  1.0000
  C   C404      1.0  0.99400  0.35390  0.79100  1.0000
  C   C405      1.0  0.98240  0.40450  0.82650  1.0000
  H   H260      1.0  0.96610  0.39130  0.85590  1.0000
  C   C406      1.0  0.99300  0.47150  0.82140  1.0000
  H   H261      1.0  0.98390  0.50490  0.84640  1.0000
  C   C407      1.0  0.01670  0.49160  0.78060  1.0000
  H   H262      1.0  0.02470  0.53910  0.77710  1.0000
  C   C408      1.0  0.09980  0.46590  0.70970  1.0000
  C   C409      1.0  0.11660  0.45880  0.76170  1.0000
  H   H263      1.0  0.10190  0.44790  0.79300  1.0000
  C   C410      1.0  0.15600  0.47000  0.75820  1.0000
  H   H264      1.0  0.17500  0.46940  0.78670  1.0000
  C   C411      1.0  0.16580  0.48360  0.70250  1.0000
  C   C412      1.0  0.20400  0.49020  0.68230  1.0000
  C   C413      1.0  0.23750  0.48710  0.72260  1.0000
  C   C414      1.0  0.25770  0.42450  0.72990  1.0000
  H   H265      1.0  0.25270  0.38690  0.70630  1.0000
  C   C415      1.0  0.28500  0.41580  0.77110  1.0000
  C   C416      1.0  0.29270  0.47060  0.80560  1.0000
  H   H266      1.0  0.31120  0.46440  0.83410  1.0000
  C   C417      1.0  0.27340  0.53480  0.79860  1.0000
  H   H267      1.0  0.27910  0.57250  0.82180  1.0000
  C   C418      1.0  0.24540  0.54310  0.75690  1.0000
  H   H268      1.0  0.23190  0.58650  0.75200  1.0000
  C   C419      1.0  0.21080  0.49180  0.62920  1.0000
  C   C420      1.0  0.25230  0.49180  0.60590  1.0000
  H   H269      1.0  0.27730  0.49320  0.62500  1.0000
  C   C421      1.0  0.24850  0.48940  0.55460  1.0000
  H   H270      1.0  0.27010  0.48720  0.52960  1.0000
  C   C422      1.0  0.20540  0.49070  0.54280  1.0000
  C   C423      1.0  0.18950  0.49730  0.49230  1.0000
  C   C424      1.0  0.21710  0.50460  0.44690  1.0000
  C   C425      1.0  0.23150  0.56880  0.43570  1.0000
  H   H271      1.0  0.22500  0.60680  0.45830  1.0000
  C   C426      1.0  0.25740  0.58060  0.38880  1.0000
  C   C427      1.0  0.26690  0.52410  0.35910  1.0000
  H   H272      1.0  0.28530  0.52970  0.33030  1.0000
  C   C428      1.0  0.25110  0.45890  0.36880  1.0000
  H   H273      1.0  0.25740  0.42130  0.34590  1.0000
  C   C429      1.0  0.22560  0.44780  0.41260  1.0000
  H   H274      1.0  0.21420  0.40310  0.41910  1.0000
  C   C430      1.0  0.14820  0.50690  0.48400  1.0000
  C   C431      1.0  0.13010  0.52210  0.43350  1.0000
  H   H275      1.0  0.14420  0.52390  0.40070  1.0000
  C   C432      1.0  0.09120  0.53310  0.44020  1.0000
  H   H276      1.0  0.07190  0.54390  0.41330  1.0000
  C   C433      1.0  0.08270  0.52590  0.49580  1.0000
  C   C434      1.0  0.04460  0.53000  0.51630  1.0000
  C   C435      1.0  0.00950  0.55290  0.48300  1.0000
  C   C436      1.0  0.99900  0.61900  0.48350  1.0000
  H   H277      1.0  0.01480  0.65110  0.50350  1.0000
  C   C437      1.0  0.96300  0.64470  0.45370  1.0000
  C   C438      1.0  0.94320  0.59780  0.42750  1.0000
  H   H278      1.0  0.91920  0.61250  0.40970  1.0000
  C   C439      1.0  0.95440  0.52360  0.42260  1.0000
  H   H279      1.0  0.94090  0.49120  0.40020  1.0000
  C   C440      1.0  0.98730  0.50710  0.45530  1.0000
  H   H280      1.0  0.99460  0.45930  0.45800  1.0000
  P   P41       1.0  0.52388  0.76385  0.29716  1.0000
  P   P42       1.0  0.19229  0.83089  0.28151  1.0000
  P   P43       1.0  0.22407  0.16552  0.87465  1.0000
  P   P44       1.0  0.55260  0.22960  0.95600  1.0000
  O   O121      1.0  0.49610  0.71960  0.26400  1.0000
  O   O122      1.0  0.52400  0.74520  0.35600  1.0000
  H   H281      1.0  0.49880  0.74430  0.36620  1.0000
  O   O123      1.0  0.56760  0.76240  0.28250  1.0000
  O   O124      1.0  0.21840  0.77970  0.25100  1.0000
  O   O125      1.0  0.19090  0.81540  0.34120  1.0000
  O   O126      1.0  0.14930  0.83270  0.26120  1.0000
  O   O127      1.0  0.22630  0.17570  0.81670  1.0000
  O   O128      1.0  0.24910  0.21590  0.90830  1.0000
  O   O129      1.0  0.17840  0.16800  0.89190  1.0000
  O   O130      1.0  0.54930  0.26970  0.90630  1.0000
  O   O131      1.0  0.53030  0.27740  0.00050  1.0000
  H   H282      1.0  0.54810  0.30710  0.01200  1.0000
  O   O132      1.0  0.59720  0.22800  0.96950  1.0000
  N   N41       1.0  0.43490  0.99360  0.10580  1.0000
  N   N42       1.0  0.37130  0.98110  0.17310  1.0000
  N   N43       1.0  0.31670  0.99180  0.09030  1.0000
  N   N44       1.0  0.38290  0.00840  0.02220  1.0000
  C   C441      1.0  0.46360  0.01420  0.06900  1.0000
  C   C442      1.0  0.50450  0.01110  0.08950  1.0000
  H   H283      1.0  0.52900  0.02410  0.07200  1.0000
  C   C443      1.0  0.50050  0.98500  0.14070  1.0000
  H   H284      1.0  0.52200  0.97460  0.16470  1.0000
  C   C444      1.0  0.45800  0.97700  0.15010  1.0000
  C   C445      1.0  0.44230  0.96100  0.19830  1.0000
  C   C446      1.0  0.47010  0.94090  0.24240  1.0000
  C   C447      1.0  0.48170  0.87220  0.24900  1.0000
  H   H285      1.0  0.47290  0.83770  0.22450  1.0000
  C   C448      1.0  0.50600  0.85390  0.29100  1.0000
  C   C449      1.0  0.51760  0.90450  0.32650  1.0000
  H   H286      1.0  0.53390  0.89130  0.35590  1.0000
  C   C450      1.0  0.50700  0.97150  0.32140  1.0000
  H   H287      1.0  0.51610  0.00490  0.34640  1.0000
  C   C451      1.0  0.48330  0.99160  0.28060  1.0000
  H   H288      1.0  0.47530  0.03910  0.27710  1.0000
  C   C452      1.0  0.40020  0.96590  0.20970  1.0000
  C   C453      1.0  0.38340  0.95880  0.26170  1.0000
  H   H289      1.0  0.39810  0.94790  0.29300  1.0000
  C   C454      1.0  0.34400  0.97000  0.25820  1.0000
  H   H290      1.0  0.32500  0.96940  0.28670  1.0000
  C   C455      1.0  0.33420  0.98360  0.20250  1.0000
  C   C456      1.0  0.29600  0.99020  0.18230  1.0000
  C   C457      1.0  0.26250  0.98710  0.22260  1.0000
  C   C458      1.0  0.24230  0.92450  0.22990  1.0000
  H   H291      1.0  0.24730  0.88690  0.20630  1.0000
  C   C459      1.0  0.21500  0.91580  0.27110  1.0000
  C   C460      1.0  0.20730  0.97060  0.30560  1.0000
  H   H292      1.0  0.18880  0.96440  0.33410  1.0000
  C   C461      1.0  0.22660  0.03480  0.29860  1.0000
  H   H293      1.0  0.22090  0.07250  0.32180  1.0000
  C   C462      1.0  0.25460  0.04310  0.25690  1.0000
  H   H294      1.0  0.26810  0.08650  0.25200  1.0000
  C   C463      1.0  0.28920  0.99180  0.12920  1.0000
  C   C464      1.0  0.24770  0.99180  0.10590  1.0000
  H   H295      1.0  0.22270  0.99320  0.12500  1.0000
  C   C465      1.0  0.25150  0.98940  0.05460  1.0000
  H   H296      1.0  0.22990  0.98720  0.02960  1.0000
  C   C466      1.0  0.29460  0.99070  0.04280  1.0000
  C   C467      1.0  0.31050  0.99730  0.99230  1.0000
  C   C468      1.0  0.28290  0.00460  0.94690  1.0000
  C   C469      1.0  0.26850  0.06880  0.93570  1.0000
  H   H297      1.0  0.27500  0.10680  0.95830  1.0000
  C   C470      1.0  0.24260  0.08060  0.88880  1.0000
  C   C471      1.0  0.23310  0.02410  0.85910  1.0000
  H   H298      1.0  0.21470  0.02970  0.83030  1.0000
  C   C472      1.0  0.24890  0.95890  0.86880  1.0000
  H   H299      1.0  0.24260  0.92130  0.84590  1.0000
  C   C473      1.0  0.27440  0.94780  0.91260  1.0000
  H   H300      1.0  0.28580  0.90310  0.91910  1.0000
  C   C474      1.0  0.35180  0.00690  0.98400  1.0000
  C   C475      1.0  0.36990  0.02210  0.93350  1.0000
  H   H301      1.0  0.35580  0.02390  0.90070  1.0000
  C   C476      1.0  0.40880  0.03310  0.94020  1.0000
  H   H302      1.0  0.42810  0.04390  0.91330  1.0000
  C   C477      1.0  0.41730  0.02590  0.99580  1.0000
  C   C478      1.0  0.45540  0.03000  0.01630  1.0000
  C   C479      1.0  0.49050  0.05290  0.98300  1.0000
  C   C480      1.0  0.50100  0.11900  0.98350  1.0000
  H   H303      1.0  0.48520  0.15110  0.00350  1.0000
  C   C481      1.0  0.53700  0.14470  0.95370  1.0000
  C   C482      1.0  0.55680  0.09780  0.92750  1.0000
  H   H304      1.0  0.58080  0.11250  0.90970  1.0000
  C   C483      1.0  0.54560  0.02360  0.92260  1.0000
  H   H305      1.0  0.55910  0.99120  0.90020  1.0000
  C   C484      1.0  0.51270  0.00710  0.95530  1.0000
  H   H306      1.0  0.50540  0.95930  0.95800  1.0000
  P   P45       1.0  0.47612  0.23615  0.79716  1.0000
  P   P46       1.0  0.80771  0.16911  0.78151  1.0000
  P   P47       1.0  0.77593  0.83448  0.37465  1.0000
  P   P48       1.0  0.44740  0.77040  0.45600  1.0000
  O   O133      1.0  0.50390  0.28040  0.76400  1.0000
  O   O134      1.0  0.47600  0.25480  0.85600  1.0000
  H   H307      1.0  0.50120  0.25570  0.86620  1.0000
  O   O135      1.0  0.43240  0.23760  0.78250  1.0000
  O   O136      1.0  0.78160  0.22030  0.75100  1.0000
  O   O137      1.0  0.80910  0.18460  0.84120  1.0000
  O   O138      1.0  0.85070  0.16730  0.76120  1.0000
  O   O139      1.0  0.77370  0.82430  0.31670  1.0000
  O   O140      1.0  0.75090  0.78410  0.40830  1.0000
  O   O141      1.0  0.82160  0.83200  0.39190  1.0000
  O   O142      1.0  0.45070  0.73030  0.40630  1.0000
  O   O143      1.0  0.46970  0.72260  0.50050  1.0000
  H   H308      1.0  0.45190  0.69290  0.51200  1.0000
  O   O144      1.0  0.40280  0.77200  0.46950  1.0000
  N   N45       1.0  0.56510  0.00640  0.60580  1.0000
  N   N46       1.0  0.62870  0.01890  0.67310  1.0000
  N   N47       1.0  0.68330  0.00820  0.59030  1.0000
  N   N48       1.0  0.61710  0.99160  0.52220  1.0000
  C   C485      1.0  0.53640  0.98580  0.56900  1.0000
  C   C486      1.0  0.49550  0.98890  0.58950  1.0000
  H   H309      1.0  0.47100  0.97590  0.57200  1.0000
  C   C487      1.0  0.49950  0.01500  0.64070  1.0000
  H   H310      1.0  0.47800  0.02540  0.66470  1.0000
  C   C488      1.0  0.54200  0.02300  0.65010  1.0000
  C   C489      1.0  0.55770  0.03900  0.69830  1.0000
  C   C490      1.0  0.52990  0.05910  0.74240  1.0000
  C   C491      1.0  0.51830  0.12780  0.74900  1.0000
  H   H311      1.0  0.52710  0.16230  0.72450  1.0000
  C   C492      1.0  0.49400  0.14610  0.79100  1.0000
  C   C493      1.0  0.48240  0.09550  0.82650  1.0000
  H   H312      1.0  0.46610  0.10870  0.85590  1.0000
  C   C494      1.0  0.49300  0.02850  0.82140  1.0000
  H   H313      1.0  0.48390  0.99510  0.84640  1.0000
  C   C495      1.0  0.51670  0.00840  0.78060  1.0000
  H   H314      1.0  0.52470  0.96090  0.77710  1.0000
  C   C496      1.0  0.59980  0.03410  0.70970  1.0000
  C   C497      1.0  0.61660  0.04120  0.76170  1.0000
  H   H315      1.0  0.60190  0.05210  0.79300  1.0000
  C   C498      1.0  0.65600  0.03000  0.75820  1.0000
  H   H316      1.0  0.67500  0.03060  0.78670  1.0000
  C   C499      1.0  0.66580  0.01640  0.70250  1.0000
  C   C500      1.0  0.70400  0.00980  0.68230  1.0000
  C   C501      1.0  0.73750  0.01290  0.72260  1.0000
  C   C502      1.0  0.75770  0.07550  0.72990  1.0000
  H   H317      1.0  0.75270  0.11310  0.70630  1.0000
  C   C503      1.0  0.78500  0.08420  0.77110  1.0000
  C   C504      1.0  0.79270  0.02940  0.80560  1.0000
  H   H318      1.0  0.81120  0.03560  0.83410  1.0000
  C   C505      1.0  0.77340  0.96520  0.79860  1.0000
  H   H319      1.0  0.77910  0.92750  0.82180  1.0000
  C   C506      1.0  0.74540  0.95690  0.75690  1.0000
  H   H320      1.0  0.73190  0.91350  0.75200  1.0000
  C   C507      1.0  0.71080  0.00820  0.62920  1.0000
  C   C508      1.0  0.75230  0.00820  0.60590  1.0000
  H   H321      1.0  0.77730  0.00680  0.62500  1.0000
  C   C509      1.0  0.74850  0.01060  0.55460  1.0000
  H   H322      1.0  0.77010  0.01280  0.52960  1.0000
  C   C510      1.0  0.70540  0.00930  0.54280  1.0000
  C   C511      1.0  0.68950  0.00270  0.49230  1.0000
  C   C512      1.0  0.71710  0.99540  0.44690  1.0000
  C   C513      1.0  0.73150  0.93120  0.43570  1.0000
  H   H323      1.0  0.72500  0.89320  0.45830  1.0000
  C   C514      1.0  0.75740  0.91940  0.38880  1.0000
  C   C515      1.0  0.76690  0.97590  0.35910  1.0000
  H   H324      1.0  0.78530  0.97030  0.33030  1.0000
  C   C516      1.0  0.75110  0.04110  0.36880  1.0000
  H   H325      1.0  0.75740  0.07870  0.34590  1.0000
  C   C517      1.0  0.72560  0.05220  0.41260  1.0000
  H   H326      1.0  0.71420  0.09690  0.41910  1.0000
  C   C518      1.0  0.64820  0.99310  0.48400  1.0000
  C   C519      1.0  0.63010  0.97790  0.43350  1.0000
  H   H327      1.0  0.64420  0.97610  0.40070  1.0000
  C   C520      1.0  0.59120  0.96690  0.44020  1.0000
  H   H328      1.0  0.57190  0.95610  0.41330  1.0000
  C   C521      1.0  0.58270  0.97410  0.49580  1.0000
  C   C522      1.0  0.54460  0.97000  0.51630  1.0000
  C   C523      1.0  0.50950  0.94710  0.48300  1.0000
  C   C524      1.0  0.49900  0.88100  0.48350  1.0000
  H   H329      1.0  0.51480  0.84890  0.50350  1.0000
  C   C525      1.0  0.46300  0.85530  0.45370  1.0000
  C   C526      1.0  0.44320  0.90220  0.42750  1.0000
  H   H330      1.0  0.41920  0.88750  0.40970  1.0000
  C   C527      1.0  0.45440  0.97640  0.42260  1.0000
  H   H331      1.0  0.44090  0.00880  0.40020  1.0000
  C   C528      1.0  0.48730  0.99290  0.45530  1.0000
  H   H332      1.0  0.49460  0.04070  0.45800  1.0000
  Zn  Zn1       1.0  0.98593  0.87807  0.25490  1.0000
  Zn  Zn2       1.0  0.73146  0.81623  0.26433  1.0000
  Zn  Zn3       1.0  0.73281  0.68981  0.39532  1.0000
  Ni  Ni1       1.0  0.87633  0.50624  0.09773  1.0000
  Ni  Ni2       1.0  0.98247  0.33192  0.35117  1.0000
  Ni  Ni3       1.0  0.75229  0.74295  0.83093  1.0000
  Zn  Zn4       1.0  0.51407  0.37807  0.75490  1.0000
  Zn  Zn5       1.0  0.76854  0.31623  0.76433  1.0000
  Zn  Zn6       1.0  0.76719  0.18981  0.89532  1.0000
  Ni  Ni4       1.0  0.62367  0.00624  0.59773  1.0000
  Ni  Ni5       1.0  0.51753  0.83192  0.85117  1.0000
  Ni  Ni6       1.0  0.74771  0.24295  0.33093  1.0000
  Zn  Zn7       1.0  0.01407  0.12193  0.75490  1.0000
  Zn  Zn8       1.0  0.26854  0.18377  0.76433  1.0000
  Zn  Zn9       1.0  0.26719  0.31019  0.89532  1.0000
  Ni  Ni7       1.0  0.12367  0.49376  0.59773  1.0000
  Ni  Ni8       1.0  0.01753  0.66808  0.85117  1.0000
  Ni  Ni9       1.0  0.24771  0.25705  0.33093  1.0000
  Zn  Zn10      1.0  0.48593  0.62193  0.25490  1.0000
  Zn  Zn11      1.0  0.23146  0.68377  0.26433  1.0000
  Zn  Zn12      1.0  0.23281  0.81019  0.39532  1.0000
  Ni  Ni10      1.0  0.37633  0.99376  0.09773  1.0000
  Ni  Ni11      1.0  0.48247  0.16808  0.35117  1.0000
  Ni  Ni12      1.0  0.25229  0.75705  0.83093  1.0000
