data_image0
_chemical_formula_structural       OPO2CHC3H2C2H2C3NCNC3HCHCN2CHCHC16H5C2H2C2HC2HCH2CH2C2HP2HCHO3PHO3HO6PO2CHC3H2C2H2C3NCNC3HCHCN2CHCHC16H5C2H2C2HC2HCH2CH2C2HP2HCHO3PHO3HO3PO2CHC3H2C2H2C3NCNC3HCHCN2CHCHC16H5C2H2C2HC2HCH2CH2C2HP2HCHO3PHO3HO5PO2CHC3H2C2H2C3NCNC3HCHCN2CHCHC16H5C2H2C2HC2HCH2CH2C2HP2HCHO3PHO3HO3PO2CHC3H2C2H2C3NCNC3HCHCN2CHCHC16H5C2H2C2HC2HCH2CH2C2HP2HCHO3PHO3HO3PO2CHC3H2C2H2C3NCNC3HCHCN2CHCHC11OC4H5C2H2C2HC2HCH2CH2C2HP2HCHO3PHO3HO2C9H5C2H2C2HC2HCH2CH2C2HP2HCHO3PHO3HO4PO2CHC3H2C2H2C3NCNC3HCHCN2CHCHC8O4PO2CHC3H2C2H2C3NCNC3HCHCN2CHCHC16H5C2H2C2HC2HCH2CH2C2HP2HCHO3PHO3HZnNiZnNiZnNiZnNiZnNi2ZnNiZnNiZn
_chemical_formula_sum              "O96 P32 C352 H216 N32 Zn8 Ni8"
_cell_length_a       31.25
_cell_length_b       24.893
_cell_length_c       18.6983
_cell_angle_alpha    90
_cell_angle_beta     118.081
_cell_angle_gamma    90

_space_group_name_H-M_alt    "P 1"
_space_group_IT_number       1

loop_
  _space_group_symop_operation_xyz
  'x, y, z'

loop_
  _atom_site_type_symbol
  _atom_site_label
  _atom_site_symmetry_multiplicity
  _atom_site_fract_x
  _atom_site_fract_y
  _atom_site_fract_z
  _atom_site_occupancy
  O   O1        1.0  0.74786  0.30757  0.68430  1.0000
  P   P1        1.0  0.74000  0.34778  0.73711  1.0000
  O   O2        1.0  0.72374  0.31998  0.79310  1.0000
  O   O3        1.0  0.78499  0.38278  0.78560  1.0000
  C   C1        1.0  0.69290  0.39170  0.67130  1.0000
  H   H1        1.0  0.80270  0.37610  0.83300  1.0000
  C   C2        1.0  0.66060  0.41460  0.69420  1.0000
  C   C3        1.0  0.68640  0.40490  0.59520  1.0000
  C   C4        1.0  0.62550  0.44980  0.64300  1.0000
  H   H2        1.0  0.66270  0.40600  0.74530  1.0000
  H   H3        1.0  0.70720  0.38890  0.57700  1.0000
  C   C5        1.0  0.65100  0.44030  0.54400  1.0000
  C   C6        1.0  0.62050  0.46420  0.56870  1.0000
  H   H4        1.0  0.60390  0.46480  0.66010  1.0000
  H   H5        1.0  0.64790  0.44800  0.49200  1.0000
  C   C7        1.0  0.58220  0.50190  0.51390  1.0000
  C   C8        1.0  0.54170  0.48160  0.44950  1.0000
  C   C9        1.0  0.58720  0.55550  0.53350  1.0000
  N   N1        1.0  0.50686  0.51214  0.38820  1.0000
  C   C10       1.0  0.52890  0.42600  0.43800  1.0000
  N   N2        1.0  0.55322  0.59453  0.49040  1.0000
  C   C11       1.0  0.62370  0.57750  0.60820  1.0000
  C   C12       1.0  0.47400  0.47500  0.33700  1.0000
  C   C13       1.0  0.48680  0.42170  0.37050  1.0000
  H   H6        1.0  0.54700  0.39730  0.47240  1.0000
  C   C14       1.0  0.56680  0.63840  0.54050  1.0000
  H   H7        1.0  0.65200  0.55950  0.64680  1.0000
  C   C15       1.0  0.61090  0.62810  0.61400  1.0000
  N   N3        1.0  0.48747  0.66483  0.38210  1.0000
  N   N4        1.0  0.44920  0.58430  0.27170  1.0000
  C   C16       1.0  0.43610  0.48640  0.26040  1.0000
  H   H8        1.0  0.46880  0.38980  0.34860  1.0000
  C   C17       1.0  0.54200  0.68630  0.52450  1.0000
  H   H9        1.0  0.62770  0.65230  0.65780  1.0000
  C   C18       1.0  0.45700  0.69680  0.31690  1.0000
  C   C19       1.0  0.50440  0.69950  0.44800  1.0000
  C   C20       1.0  0.42900  0.62610  0.21800  1.0000
  C   C21       1.0  0.42818  0.53810  0.22830  1.0000
  C   C22       1.0  0.40400  0.44200  0.21080  1.0000
  C   C23       1.0  0.55700  0.72660  0.59200  1.0000
  C   C24       1.0  0.43200  0.67940  0.23770  1.0000
  C   C25       1.0  0.45440  0.74930  0.34350  1.0000
  C   C26       1.0  0.48250  0.75120  0.42400  1.0000
  C   C27       1.0  0.39740  0.60490  0.13830  1.0000
  C   C28       1.0  0.39640  0.55130  0.14640  1.0000
  C   C29       1.0  0.35470  0.44220  0.18810  1.0000
  C   C30       1.0  0.42140  0.39840  0.18680  1.0000
  C   C31       1.0  0.59620  0.76020  0.61410  1.0000
  C   C32       1.0  0.53310  0.72790  0.63850  1.0000
  C   C33       1.0  0.40350  0.71940  0.17330  1.0000
  H   H10       1.0  0.43590  0.77820  0.31010  1.0000
  H   H11       1.0  0.48700  0.78120  0.45840  1.0000
  H   H12       1.0  0.38060  0.62500  0.08960  1.0000
  H   H13       1.0  0.37770  0.52660  0.10450  1.0000
  H   H14       1.0  0.34130  0.47170  0.20300  1.0000
  C   C34       1.0  0.32500  0.40030  0.14440  1.0000
  C   C35       1.0  0.39210  0.35730  0.14310  1.0000
  H   H15       1.0  0.45490  0.39700  0.20140  1.0000
  H   H16       1.0  0.61260  0.76060  0.58240  1.0000
  C   C36       1.0  0.61220  0.79310  0.68030  1.0000
  C   C37       1.0  0.54950  0.76000  0.70590  1.0000
  H   H17       1.0  0.50510  0.70640  0.62340  1.0000
  C   C38       1.0  0.42560  0.75180  0.14280  1.0000
  C   C39       1.0  0.35500  0.72500  0.14660  1.0000
  H   H18       1.0  0.29160  0.40120  0.13070  1.0000
  C   C40       1.0  0.34260  0.35740  0.12040  1.0000
  H   H19       1.0  0.40550  0.32800  0.12770  1.0000
  H   H20       1.0  0.63920  0.81600  0.69370  1.0000
  C   C41       1.0  0.58940  0.79300  0.72720  1.0000
  H   H21       1.0  0.53340  0.75960  0.73820  1.0000
  H   H22       1.0  0.45940  0.74820  0.16150  1.0000
  C   C42       1.0  0.39970  0.79050  0.08470  1.0000
  C   C43       1.0  0.32930  0.76320  0.08930  1.0000
  H   H23       1.0  0.33890  0.70260  0.16770  1.0000
  P   P2        1.0  0.30424  0.30319  0.06371  1.0000
  P   P3        1.0  0.61018  0.83486  0.81573  1.0000
  H   H24       1.0  0.41590  0.81250  0.06350  1.0000
  C   C44       1.0  0.35110  0.79690  0.05790  1.0000
  H   H25       1.0  0.29540  0.76640  0.07070  1.0000
  O   O4        1.0  0.33356  0.26599  0.03860  1.0000
  O   O5        1.0  0.57927  0.88398  0.79550  1.0000
  O   O6        1.0  0.60212  0.80150  0.87850  1.0000
  P   P4        1.0  0.31809  0.85072  0.98958  1.0000
  H   H26       1.0  0.61470  0.78030  0.91640  1.0000
  O   O7        1.0  0.34015  0.85800  0.93190  1.0000
  O   O8        1.0  0.26500  0.83400  0.94400  1.0000
  O   O9        1.0  0.32450  0.89970  0.04130  1.0000
  H   H27       1.0  0.24940  0.84580  0.89850  1.0000
  O   O10       1.0  0.28785  0.27508  0.11940  1.0000
  O   O11       1.0  0.26153  0.32923  0.99180  1.0000
  O   O12       1.0  0.66338  0.84665  0.84520  1.0000
  O   O13       1.0  0.73847  0.32923  0.50820  1.0000
  O   O14       1.0  0.33662  0.84665  0.65480  1.0000
  O   O15       1.0  0.25214  0.30757  0.81570  1.0000
  P   P5        1.0  0.26000  0.34778  0.76289  1.0000
  O   O16       1.0  0.27626  0.31998  0.70690  1.0000
  O   O17       1.0  0.21501  0.38278  0.71440  1.0000
  C   C45       1.0  0.30710  0.39170  0.82870  1.0000
  H   H28       1.0  0.19730  0.37610  0.66700  1.0000
  C   C46       1.0  0.33940  0.41460  0.80580  1.0000
  C   C47       1.0  0.31360  0.40490  0.90480  1.0000
  C   C48       1.0  0.37450  0.44980  0.85700  1.0000
  H   H29       1.0  0.33730  0.40600  0.75470  1.0000
  H   H30       1.0  0.29280  0.38890  0.92300  1.0000
  C   C49       1.0  0.34900  0.44030  0.95600  1.0000
  C   C50       1.0  0.37950  0.46420  0.93130  1.0000
  H   H31       1.0  0.39610  0.46480  0.83990  1.0000
  H   H32       1.0  0.35210  0.44800  0.00800  1.0000
  C   C51       1.0  0.41780  0.50190  0.98610  1.0000
  C   C52       1.0  0.45830  0.48160  0.05050  1.0000
  C   C53       1.0  0.41280  0.55550  0.96650  1.0000
  N   N5        1.0  0.49314  0.51214  0.11180  1.0000
  C   C54       1.0  0.47110  0.42600  0.06200  1.0000
  N   N6        1.0  0.44678  0.59453  0.00960  1.0000
  C   C55       1.0  0.37630  0.57750  0.89180  1.0000
  C   C56       1.0  0.52600  0.47500  0.16300  1.0000
  C   C57       1.0  0.51320  0.42170  0.12950  1.0000
  H   H33       1.0  0.45300  0.39730  0.02760  1.0000
  C   C58       1.0  0.43320  0.63840  0.95950  1.0000
  H   H34       1.0  0.34800  0.55950  0.85320  1.0000
  C   C59       1.0  0.38910  0.62810  0.88600  1.0000
  N   N7        1.0  0.51253  0.66483  0.11790  1.0000
  N   N8        1.0  0.55080  0.58430  0.22830  1.0000
  C   C60       1.0  0.56390  0.48640  0.23960  1.0000
  H   H35       1.0  0.53120  0.38980  0.15140  1.0000
  C   C61       1.0  0.45800  0.68630  0.97550  1.0000
  H   H36       1.0  0.37230  0.65230  0.84220  1.0000
  C   C62       1.0  0.54300  0.69680  0.18310  1.0000
  C   C63       1.0  0.49560  0.69950  0.05200  1.0000
  C   C64       1.0  0.57100  0.62610  0.28200  1.0000
  C   C65       1.0  0.57182  0.53810  0.27170  1.0000
  C   C66       1.0  0.59600  0.44200  0.28920  1.0000
  C   C67       1.0  0.44300  0.72660  0.90800  1.0000
  C   C68       1.0  0.56800  0.67940  0.26230  1.0000
  C   C69       1.0  0.54560  0.74930  0.15650  1.0000
  C   C70       1.0  0.51750  0.75120  0.07600  1.0000
  C   C71       1.0  0.60260  0.60490  0.36170  1.0000
  C   C72       1.0  0.60360  0.55130  0.35360  1.0000
  C   C73       1.0  0.64530  0.44220  0.31190  1.0000
  C   C74       1.0  0.57860  0.39840  0.31320  1.0000
  C   C75       1.0  0.40380  0.76020  0.88590  1.0000
  C   C76       1.0  0.46690  0.72790  0.86150  1.0000
  C   C77       1.0  0.59650  0.71940  0.32670  1.0000
  H   H37       1.0  0.56410  0.77820  0.18990  1.0000
  H   H38       1.0  0.51300  0.78120  0.04160  1.0000
  H   H39       1.0  0.61940  0.62500  0.41040  1.0000
  H   H40       1.0  0.62230  0.52660  0.39550  1.0000
  H   H41       1.0  0.65870  0.47170  0.29700  1.0000
  C   C78       1.0  0.67500  0.40030  0.35560  1.0000
  C   C79       1.0  0.60790  0.35730  0.35690  1.0000
  H   H42       1.0  0.54510  0.39700  0.29860  1.0000
  H   H43       1.0  0.38740  0.76060  0.91760  1.0000
  C   C80       1.0  0.38780  0.79310  0.81970  1.0000
  C   C81       1.0  0.45050  0.76000  0.79410  1.0000
  H   H44       1.0  0.49490  0.70640  0.87660  1.0000
  C   C82       1.0  0.57440  0.75180  0.35720  1.0000
  C   C83       1.0  0.64500  0.72500  0.35340  1.0000
  H   H45       1.0  0.70840  0.40120  0.36930  1.0000
  C   C84       1.0  0.65740  0.35740  0.37960  1.0000
  H   H46       1.0  0.59450  0.32800  0.37230  1.0000
  H   H47       1.0  0.36080  0.81600  0.80630  1.0000
  C   C85       1.0  0.41060  0.79300  0.77280  1.0000
  H   H48       1.0  0.46660  0.75960  0.76180  1.0000
  H   H49       1.0  0.54060  0.74820  0.33850  1.0000
  C   C86       1.0  0.60030  0.79050  0.41530  1.0000
  C   C87       1.0  0.67070  0.76320  0.41070  1.0000
  H   H50       1.0  0.66110  0.70260  0.33230  1.0000
  P   P6        1.0  0.69576  0.30319  0.43629  1.0000
  P   P7        1.0  0.38982  0.83486  0.68427  1.0000
  H   H51       1.0  0.58410  0.81250  0.43650  1.0000
  C   C88       1.0  0.64890  0.79690  0.44210  1.0000
  H   H52       1.0  0.70460  0.76640  0.42930  1.0000
  O   O18       1.0  0.66644  0.26599  0.46140  1.0000
  O   O19       1.0  0.42073  0.88398  0.70450  1.0000
  O   O20       1.0  0.39788  0.80150  0.62150  1.0000
  P   P8        1.0  0.68191  0.85072  0.51042  1.0000
  H   H53       1.0  0.38530  0.78030  0.58360  1.0000
  O   O21       1.0  0.65985  0.85800  0.56810  1.0000
  O   O22       1.0  0.73500  0.83400  0.55600  1.0000
  O   O23       1.0  0.67550  0.89970  0.45870  1.0000
  H   H54       1.0  0.75060  0.84580  0.60150  1.0000
  O   O24       1.0  0.71215  0.27508  0.38060  1.0000
  O   O25       1.0  0.78785  0.22492  0.61940  1.0000
  O   O26       1.0  0.24786  0.19243  0.18430  1.0000
  P   P9        1.0  0.24000  0.15222  0.23711  1.0000
  O   O27       1.0  0.22374  0.18002  0.29310  1.0000
  O   O28       1.0  0.28499  0.11722  0.28560  1.0000
  C   C89       1.0  0.19290  0.10830  0.17130  1.0000
  H   H55       1.0  0.30270  0.12390  0.33300  1.0000
  C   C90       1.0  0.16060  0.08540  0.19420  1.0000
  C   C91       1.0  0.18640  0.09510  0.09520  1.0000
  C   C92       1.0  0.12550  0.05020  0.14300  1.0000
  H   H56       1.0  0.16270  0.09400  0.24530  1.0000
  H   H57       1.0  0.20720  0.11110  0.07700  1.0000
  C   C93       1.0  0.15100  0.05970  0.04400  1.0000
  C   C94       1.0  0.12050  0.03580  0.06870  1.0000
  H   H58       1.0  0.10390  0.03520  0.16010  1.0000
  H   H59       1.0  0.14790  0.05200  0.99200  1.0000
  C   C95       1.0  0.08220  0.99810  0.01390  1.0000
  C   C96       1.0  0.04170  0.01840  0.94950  1.0000
  C   C97       1.0  0.08720  0.94450  0.03350  1.0000
  N   N9        1.0  0.00686  0.98786  0.88820  1.0000
  C   C98       1.0  0.02890  0.07400  0.93800  1.0000
  N   N10       1.0  0.05322  0.90547  0.99040  1.0000
  C   C99       1.0  0.12370  0.92250  0.10820  1.0000
  C   C100      1.0  0.97400  0.02500  0.83700  1.0000
  C   C101      1.0  0.98680  0.07830  0.87050  1.0000
  H   H60       1.0  0.04700  0.10270  0.97240  1.0000
  C   C102      1.0  0.06680  0.86160  0.04050  1.0000
  H   H61       1.0  0.15200  0.94050  0.14680  1.0000
  C   C103      1.0  0.11090  0.87190  0.11400  1.0000
  N   N11       1.0  0.98747  0.83517  0.88210  1.0000
  N   N12       1.0  0.94920  0.91570  0.77170  1.0000
  C   C104      1.0  0.93610  0.01360  0.76040  1.0000
  H   H62       1.0  0.96880  0.11020  0.84860  1.0000
  C   C105      1.0  0.04200  0.81370  0.02450  1.0000
  H   H63       1.0  0.12770  0.84770  0.15780  1.0000
  C   C106      1.0  0.95700  0.80320  0.81690  1.0000
  C   C107      1.0  0.00440  0.80050  0.94800  1.0000
  C   C108      1.0  0.92900  0.87390  0.71800  1.0000
  C   C109      1.0  0.92818  0.96190  0.72830  1.0000
  C   C110      1.0  0.90400  0.05800  0.71080  1.0000
  C   C111      1.0  0.05700  0.77340  0.09200  1.0000
  C   C112      1.0  0.93200  0.82060  0.73770  1.0000
  C   C113      1.0  0.95440  0.75070  0.84350  1.0000
  C   C114      1.0  0.98250  0.74880  0.92400  1.0000
  C   C115      1.0  0.89740  0.89510  0.63830  1.0000
  C   C116      1.0  0.89640  0.94870  0.64640  1.0000
  C   C117      1.0  0.85470  0.05780  0.68810  1.0000
  C   C118      1.0  0.92140  0.10160  0.68680  1.0000
  C   C119      1.0  0.09620  0.73980  0.11410  1.0000
  C   C120      1.0  0.03310  0.77210  0.13850  1.0000
  C   C121      1.0  0.90350  0.78060  0.67330  1.0000
  H   H64       1.0  0.93590  0.72180  0.81010  1.0000
  H   H65       1.0  0.98700  0.71880  0.95840  1.0000
  H   H66       1.0  0.88060  0.87500  0.58960  1.0000
  H   H67       1.0  0.87770  0.97340  0.60450  1.0000
  H   H68       1.0  0.84130  0.02830  0.70300  1.0000
  C   C122      1.0  0.82500  0.09970  0.64440  1.0000
  C   C123      1.0  0.89210  0.14270  0.64310  1.0000
  H   H69       1.0  0.95490  0.10300  0.70140  1.0000
  H   H70       1.0  0.11260  0.73940  0.08240  1.0000
  C   C124      1.0  0.11220  0.70690  0.18030  1.0000
  C   C125      1.0  0.04950  0.74000  0.20590  1.0000
  H   H71       1.0  0.00510  0.79360  0.12340  1.0000
  C   C126      1.0  0.92560  0.74820  0.64280  1.0000
  C   C127      1.0  0.85500  0.77500  0.64660  1.0000
  H   H72       1.0  0.79160  0.09880  0.63070  1.0000
  C   C128      1.0  0.84260  0.14260  0.62040  1.0000
  H   H73       1.0  0.90550  0.17200  0.62770  1.0000
  H   H74       1.0  0.13920  0.68400  0.19370  1.0000
  C   C129      1.0  0.08940  0.70700  0.22720  1.0000
  H   H75       1.0  0.03340  0.74040  0.23820  1.0000
  H   H76       1.0  0.95940  0.75180  0.66150  1.0000
  C   C130      1.0  0.89970  0.70950  0.58470  1.0000
  C   C131      1.0  0.82930  0.73680  0.58930  1.0000
  H   H77       1.0  0.83890  0.79740  0.66770  1.0000
  P   P10       1.0  0.80424  0.19681  0.56371  1.0000
  P   P11       1.0  0.11018  0.66514  0.31573  1.0000
  H   H78       1.0  0.91590  0.68750  0.56350  1.0000
  C   C132      1.0  0.85110  0.70310  0.55790  1.0000
  H   H79       1.0  0.79540  0.73360  0.57070  1.0000
  O   O29       1.0  0.83356  0.23401  0.53860  1.0000
  O   O30       1.0  0.07927  0.61602  0.29550  1.0000
  O   O31       1.0  0.10212  0.69850  0.37850  1.0000
  P   P12       1.0  0.81809  0.64928  0.48958  1.0000
  H   H80       1.0  0.11470  0.71970  0.41640  1.0000
  O   O32       1.0  0.84015  0.64200  0.43190  1.0000
  O   O33       1.0  0.76500  0.66600  0.44400  1.0000
  O   O34       1.0  0.82450  0.60030  0.54130  1.0000
  H   H81       1.0  0.74940  0.65420  0.39850  1.0000
  O   O35       1.0  0.16338  0.65335  0.34520  1.0000
  O   O36       1.0  0.76153  0.17077  0.49180  1.0000
  O   O37       1.0  0.83662  0.34665  0.65480  1.0000
  O   O38       1.0  0.23847  0.82923  0.50820  1.0000
  O   O39       1.0  0.75214  0.80757  0.81570  1.0000
  P   P13       1.0  0.76000  0.84778  0.76289  1.0000
  O   O40       1.0  0.77626  0.81998  0.70690  1.0000
  O   O41       1.0  0.71501  0.88278  0.71440  1.0000
  C   C133      1.0  0.80710  0.89170  0.82870  1.0000
  H   H82       1.0  0.69730  0.87610  0.66700  1.0000
  C   C134      1.0  0.83940  0.91460  0.80580  1.0000
  C   C135      1.0  0.81360  0.90490  0.90480  1.0000
  C   C136      1.0  0.87450  0.94980  0.85700  1.0000
  H   H83       1.0  0.83730  0.90600  0.75470  1.0000
  H   H84       1.0  0.79280  0.88890  0.92300  1.0000
  C   C137      1.0  0.84900  0.94030  0.95600  1.0000
  C   C138      1.0  0.87950  0.96420  0.93130  1.0000
  H   H85       1.0  0.89610  0.96480  0.83990  1.0000
  H   H86       1.0  0.85210  0.94800  0.00800  1.0000
  C   C139      1.0  0.91780  0.00190  0.98610  1.0000
  C   C140      1.0  0.95830  0.98160  0.05050  1.0000
  C   C141      1.0  0.91280  0.05550  0.96650  1.0000
  N   N13       1.0  0.99314  0.01214  0.11180  1.0000
  C   C142      1.0  0.97110  0.92600  0.06200  1.0000
  N   N14       1.0  0.94678  0.09453  0.00960  1.0000
  C   C143      1.0  0.87630  0.07750  0.89180  1.0000
  C   C144      1.0  0.02600  0.97500  0.16300  1.0000
  C   C145      1.0  0.01320  0.92170  0.12950  1.0000
  H   H87       1.0  0.95300  0.89730  0.02760  1.0000
  C   C146      1.0  0.93320  0.13840  0.95950  1.0000
  H   H88       1.0  0.84800  0.05950  0.85320  1.0000
  C   C147      1.0  0.88910  0.12810  0.88600  1.0000
  N   N15       1.0  0.01253  0.16483  0.11790  1.0000
  N   N16       1.0  0.05080  0.08430  0.22830  1.0000
  C   C148      1.0  0.06390  0.98640  0.23960  1.0000
  H   H89       1.0  0.03120  0.88980  0.15140  1.0000
  C   C149      1.0  0.95800  0.18630  0.97550  1.0000
  H   H90       1.0  0.87230  0.15230  0.84220  1.0000
  C   C150      1.0  0.04300  0.19680  0.18310  1.0000
  C   C151      1.0  0.99560  0.19950  0.05200  1.0000
  C   C152      1.0  0.07100  0.12610  0.28200  1.0000
  C   C153      1.0  0.07182  0.03810  0.27170  1.0000
  C   C154      1.0  0.09600  0.94200  0.28920  1.0000
  C   C155      1.0  0.94300  0.22660  0.90800  1.0000
  C   C156      1.0  0.06800  0.17940  0.26230  1.0000
  C   C157      1.0  0.04560  0.24930  0.15650  1.0000
  C   C158      1.0  0.01750  0.25120  0.07600  1.0000
  C   C159      1.0  0.10260  0.10490  0.36170  1.0000
  C   C160      1.0  0.10360  0.05130  0.35360  1.0000
  C   C161      1.0  0.14530  0.94220  0.31190  1.0000
  C   C162      1.0  0.07860  0.89840  0.31320  1.0000
  C   C163      1.0  0.90380  0.26020  0.88590  1.0000
  C   C164      1.0  0.96690  0.22790  0.86150  1.0000
  C   C165      1.0  0.09650  0.21940  0.32670  1.0000
  H   H91       1.0  0.06410  0.27820  0.18990  1.0000
  H   H92       1.0  0.01300  0.28120  0.04160  1.0000
  H   H93       1.0  0.11940  0.12500  0.41040  1.0000
  H   H94       1.0  0.12230  0.02660  0.39550  1.0000
  H   H95       1.0  0.15870  0.97170  0.29700  1.0000
  C   C166      1.0  0.17500  0.90030  0.35560  1.0000
  C   C167      1.0  0.10790  0.85730  0.35690  1.0000
  H   H96       1.0  0.04510  0.89700  0.29860  1.0000
  H   H97       1.0  0.88740  0.26060  0.91760  1.0000
  C   C168      1.0  0.88780  0.29310  0.81970  1.0000
  C   C169      1.0  0.95050  0.26000  0.79410  1.0000
  H   H98       1.0  0.99490  0.20640  0.87660  1.0000
  C   C170      1.0  0.07440  0.25180  0.35720  1.0000
  C   C171      1.0  0.14500  0.22500  0.35340  1.0000
  H   H99       1.0  0.20840  0.90120  0.36930  1.0000
  C   C172      1.0  0.15740  0.85740  0.37960  1.0000
  H   H100      1.0  0.09450  0.82800  0.37230  1.0000
  H   H101      1.0  0.86080  0.31600  0.80630  1.0000
  C   C173      1.0  0.91060  0.29300  0.77280  1.0000
  H   H102      1.0  0.96660  0.25960  0.76180  1.0000
  H   H103      1.0  0.04060  0.24820  0.33850  1.0000
  C   C174      1.0  0.10030  0.29050  0.41530  1.0000
  C   C175      1.0  0.17070  0.26320  0.41070  1.0000
  H   H104      1.0  0.16110  0.20260  0.33230  1.0000
  P   P14       1.0  0.19576  0.80319  0.43629  1.0000
  P   P15       1.0  0.88982  0.33486  0.68427  1.0000
  H   H105      1.0  0.08410  0.31250  0.43650  1.0000
  C   C176      1.0  0.14890  0.29690  0.44210  1.0000
  H   H106      1.0  0.20460  0.26640  0.42930  1.0000
  O   O42       1.0  0.16644  0.76599  0.46140  1.0000
  O   O43       1.0  0.92073  0.38398  0.70450  1.0000
  O   O44       1.0  0.89788  0.30150  0.62150  1.0000
  P   P16       1.0  0.18191  0.35072  0.51042  1.0000
  H   H107      1.0  0.88530  0.28030  0.58360  1.0000
  O   O45       1.0  0.15985  0.35800  0.56810  1.0000
  O   O46       1.0  0.23500  0.33400  0.55600  1.0000
  O   O47       1.0  0.17550  0.39970  0.45870  1.0000
  H   H108      1.0  0.25060  0.34580  0.60150  1.0000
  O   O48       1.0  0.21215  0.77508  0.38060  1.0000
  O   O49       1.0  0.78785  0.77508  0.11940  1.0000
  O   O50       1.0  0.24786  0.80757  0.68430  1.0000
  P   P17       1.0  0.24000  0.84778  0.73711  1.0000
  O   O51       1.0  0.22374  0.81998  0.79310  1.0000
  O   O52       1.0  0.28499  0.88278  0.78560  1.0000
  C   C177      1.0  0.19290  0.89170  0.67130  1.0000
  H   H109      1.0  0.30270  0.87610  0.83300  1.0000
  C   C178      1.0  0.16060  0.91460  0.69420  1.0000
  C   C179      1.0  0.18640  0.90490  0.59520  1.0000
  C   C180      1.0  0.12550  0.94980  0.64300  1.0000
  H   H110      1.0  0.16270  0.90600  0.74530  1.0000
  H   H111      1.0  0.20720  0.88890  0.57700  1.0000
  C   C181      1.0  0.15100  0.94030  0.54400  1.0000
  C   C182      1.0  0.12050  0.96420  0.56870  1.0000
  H   H112      1.0  0.10390  0.96480  0.66010  1.0000
  H   H113      1.0  0.14790  0.94800  0.49200  1.0000
  C   C183      1.0  0.08220  0.00190  0.51390  1.0000
  C   C184      1.0  0.04170  0.98160  0.44950  1.0000
  C   C185      1.0  0.08720  0.05550  0.53350  1.0000
  N   N17       1.0  0.00686  0.01214  0.38820  1.0000
  C   C186      1.0  0.02890  0.92600  0.43800  1.0000
  N   N18       1.0  0.05322  0.09453  0.49040  1.0000
  C   C187      1.0  0.12370  0.07750  0.60820  1.0000
  C   C188      1.0  0.97400  0.97500  0.33700  1.0000
  C   C189      1.0  0.98680  0.92170  0.37050  1.0000
  H   H114      1.0  0.04700  0.89730  0.47240  1.0000
  C   C190      1.0  0.06680  0.13840  0.54050  1.0000
  H   H115      1.0  0.15200  0.05950  0.64680  1.0000
  C   C191      1.0  0.11090  0.12810  0.61400  1.0000
  N   N19       1.0  0.98747  0.16483  0.38210  1.0000
  N   N20       1.0  0.94920  0.08430  0.27170  1.0000
  C   C192      1.0  0.93610  0.98640  0.26040  1.0000
  H   H116      1.0  0.96880  0.88980  0.34860  1.0000
  C   C193      1.0  0.04200  0.18630  0.52450  1.0000
  H   H117      1.0  0.12770  0.15230  0.65780  1.0000
  C   C194      1.0  0.95700  0.19680  0.31690  1.0000
  C   C195      1.0  0.00440  0.19950  0.44800  1.0000
  C   C196      1.0  0.92900  0.12610  0.21800  1.0000
  C   C197      1.0  0.92818  0.03810  0.22830  1.0000
  C   C198      1.0  0.90400  0.94200  0.21080  1.0000
  C   C199      1.0  0.05700  0.22660  0.59200  1.0000
  C   C200      1.0  0.93200  0.17940  0.23770  1.0000
  C   C201      1.0  0.95440  0.24930  0.34350  1.0000
  C   C202      1.0  0.98250  0.25120  0.42400  1.0000
  C   C203      1.0  0.89740  0.10490  0.13830  1.0000
  C   C204      1.0  0.89640  0.05130  0.14640  1.0000
  C   C205      1.0  0.85470  0.94220  0.18810  1.0000
  C   C206      1.0  0.92140  0.89840  0.18680  1.0000
  C   C207      1.0  0.09620  0.26020  0.61410  1.0000
  C   C208      1.0  0.03310  0.22790  0.63850  1.0000
  C   C209      1.0  0.90350  0.21940  0.17330  1.0000
  H   H118      1.0  0.93590  0.27820  0.31010  1.0000
  H   H119      1.0  0.98700  0.28120  0.45840  1.0000
  H   H120      1.0  0.88060  0.12500  0.08960  1.0000
  H   H121      1.0  0.87770  0.02660  0.10450  1.0000
  H   H122      1.0  0.84130  0.97170  0.20300  1.0000
  C   C210      1.0  0.82500  0.90030  0.14440  1.0000
  C   C211      1.0  0.89210  0.85730  0.14310  1.0000
  H   H123      1.0  0.95490  0.89700  0.20140  1.0000
  H   H124      1.0  0.11260  0.26060  0.58240  1.0000
  C   C212      1.0  0.11220  0.29310  0.68030  1.0000
  C   C213      1.0  0.04950  0.26000  0.70590  1.0000
  H   H125      1.0  0.00510  0.20640  0.62340  1.0000
  C   C214      1.0  0.92560  0.25180  0.14280  1.0000
  C   C215      1.0  0.85500  0.22500  0.14660  1.0000
  H   H126      1.0  0.79160  0.90120  0.13070  1.0000
  C   C216      1.0  0.84260  0.85740  0.12040  1.0000
  H   H127      1.0  0.90550  0.82800  0.12770  1.0000
  H   H128      1.0  0.13920  0.31600  0.69370  1.0000
  C   C217      1.0  0.08940  0.29300  0.72720  1.0000
  H   H129      1.0  0.03340  0.25960  0.73820  1.0000
  H   H130      1.0  0.95940  0.24820  0.16150  1.0000
  C   C218      1.0  0.89970  0.29050  0.08470  1.0000
  C   C219      1.0  0.82930  0.26320  0.08930  1.0000
  H   H131      1.0  0.83890  0.20260  0.16770  1.0000
  P   P18       1.0  0.80424  0.80319  0.06371  1.0000
  P   P19       1.0  0.11018  0.33486  0.81573  1.0000
  H   H132      1.0  0.91590  0.31250  0.06350  1.0000
  C   C220      1.0  0.85110  0.29690  0.05790  1.0000
  H   H133      1.0  0.79540  0.26640  0.07070  1.0000
  O   O53       1.0  0.83356  0.76599  0.03860  1.0000
  O   O54       1.0  0.07927  0.38398  0.79550  1.0000
  O   O55       1.0  0.10212  0.30150  0.87850  1.0000
  P   P20       1.0  0.81809  0.35072  0.98958  1.0000
  H   H134      1.0  0.11470  0.28030  0.91640  1.0000
  O   O56       1.0  0.84015  0.35800  0.93190  1.0000
  O   O57       1.0  0.76500  0.33400  0.94400  1.0000
  O   O58       1.0  0.82450  0.39970  0.04130  1.0000
  H   H135      1.0  0.74940  0.34580  0.89850  1.0000
  O   O59       1.0  0.16338  0.34665  0.84520  1.0000
  O   O60       1.0  0.76153  0.82923  0.99180  1.0000
  O   O61       1.0  0.74786  0.69243  0.18430  1.0000
  P   P21       1.0  0.74000  0.65222  0.23711  1.0000
  O   O62       1.0  0.72374  0.68002  0.29310  1.0000
  O   O63       1.0  0.78499  0.61722  0.28560  1.0000
  C   C221      1.0  0.69290  0.60830  0.17130  1.0000
  H   H136      1.0  0.80270  0.62390  0.33300  1.0000
  C   C222      1.0  0.66060  0.58540  0.19420  1.0000
  C   C223      1.0  0.68640  0.59510  0.09520  1.0000
  C   C224      1.0  0.62550  0.55020  0.14300  1.0000
  H   H137      1.0  0.66270  0.59400  0.24530  1.0000
  H   H138      1.0  0.70720  0.61110  0.07700  1.0000
  C   C225      1.0  0.65100  0.55970  0.04400  1.0000
  C   C226      1.0  0.62050  0.53580  0.06870  1.0000
  H   H139      1.0  0.60390  0.53520  0.16010  1.0000
  H   H140      1.0  0.64790  0.55200  0.99200  1.0000
  C   C227      1.0  0.58220  0.49810  0.01390  1.0000
  C   C228      1.0  0.54170  0.51840  0.94950  1.0000
  C   C229      1.0  0.58720  0.44450  0.03350  1.0000
  N   N21       1.0  0.50686  0.48786  0.88820  1.0000
  C   C230      1.0  0.52890  0.57400  0.93800  1.0000
  N   N22       1.0  0.55322  0.40547  0.99040  1.0000
  C   C231      1.0  0.62370  0.42250  0.10820  1.0000
  C   C232      1.0  0.47400  0.52500  0.83700  1.0000
  C   C233      1.0  0.48680  0.57830  0.87050  1.0000
  H   H141      1.0  0.54700  0.60270  0.97240  1.0000
  C   C234      1.0  0.56680  0.36160  0.04050  1.0000
  H   H142      1.0  0.65200  0.44050  0.14680  1.0000
  C   C235      1.0  0.61090  0.37190  0.11400  1.0000
  N   N23       1.0  0.48747  0.33517  0.88210  1.0000
  N   N24       1.0  0.44920  0.41570  0.77170  1.0000
  C   C236      1.0  0.43610  0.51360  0.76040  1.0000
  H   H143      1.0  0.46880  0.61020  0.84860  1.0000
  C   C237      1.0  0.54200  0.31370  0.02450  1.0000
  H   H144      1.0  0.62770  0.34770  0.15780  1.0000
  C   C238      1.0  0.45700  0.30320  0.81690  1.0000
  C   C239      1.0  0.50440  0.30050  0.94800  1.0000
  C   C240      1.0  0.42900  0.37390  0.71800  1.0000
  C   C241      1.0  0.42818  0.46190  0.72830  1.0000
  C   C242      1.0  0.40400  0.55800  0.71080  1.0000
  C   C243      1.0  0.55700  0.27340  0.09200  1.0000
  C   C244      1.0  0.43200  0.32060  0.73770  1.0000
  C   C245      1.0  0.45440  0.25070  0.84350  1.0000
  C   C246      1.0  0.48250  0.24880  0.92400  1.0000
  C   C247      1.0  0.39740  0.39510  0.63830  1.0000
  C   C248      1.0  0.39640  0.44870  0.64640  1.0000
  O   O64       1.0  0.28785  0.72492  0.61940  1.0000
  C   C249      1.0  0.35470  0.55780  0.68810  1.0000
  C   C250      1.0  0.42140  0.60160  0.68680  1.0000
  C   C251      1.0  0.53310  0.27210  0.13850  1.0000
  C   C252      1.0  0.40350  0.28060  0.67330  1.0000
  H   H145      1.0  0.43590  0.22180  0.81010  1.0000
  H   H146      1.0  0.48700  0.21880  0.95840  1.0000
  H   H147      1.0  0.38060  0.37500  0.58960  1.0000
  H   H148      1.0  0.37770  0.47340  0.60450  1.0000
  H   H149      1.0  0.34130  0.52830  0.70300  1.0000
  C   C253      1.0  0.32500  0.59970  0.64440  1.0000
  C   C254      1.0  0.39210  0.64270  0.64310  1.0000
  H   H150      1.0  0.45490  0.60300  0.70140  1.0000
  H   H151      1.0  0.61260  0.23940  0.08240  1.0000
  C   C255      1.0  0.61220  0.20690  0.18030  1.0000
  C   C256      1.0  0.54950  0.24000  0.20590  1.0000
  H   H152      1.0  0.50510  0.29360  0.12340  1.0000
  C   C257      1.0  0.42560  0.24820  0.64280  1.0000
  C   C258      1.0  0.35500  0.27500  0.64660  1.0000
  H   H153      1.0  0.29160  0.59880  0.63070  1.0000
  C   C259      1.0  0.34260  0.64260  0.62040  1.0000
  H   H154      1.0  0.40550  0.67200  0.62770  1.0000
  H   H155      1.0  0.63920  0.18400  0.19370  1.0000
  C   C260      1.0  0.58940  0.20700  0.22720  1.0000
  H   H156      1.0  0.53340  0.24040  0.23820  1.0000
  H   H157      1.0  0.45940  0.25180  0.66150  1.0000
  C   C261      1.0  0.39970  0.20950  0.58470  1.0000
  C   C262      1.0  0.32930  0.23680  0.58930  1.0000
  H   H158      1.0  0.33890  0.29740  0.66770  1.0000
  P   P22       1.0  0.30424  0.69681  0.56371  1.0000
  P   P23       1.0  0.61018  0.16514  0.31573  1.0000
  H   H159      1.0  0.41590  0.18750  0.56350  1.0000
  C   C263      1.0  0.35110  0.20310  0.55790  1.0000
  H   H160      1.0  0.29540  0.23360  0.57070  1.0000
  O   O65       1.0  0.33356  0.73401  0.53860  1.0000
  O   O66       1.0  0.57927  0.11602  0.29550  1.0000
  O   O67       1.0  0.60212  0.19850  0.37850  1.0000
  P   P24       1.0  0.31809  0.14928  0.48958  1.0000
  H   H161      1.0  0.61470  0.21970  0.41640  1.0000
  O   O68       1.0  0.34015  0.14200  0.43190  1.0000
  O   O69       1.0  0.26500  0.16600  0.44400  1.0000
  O   O70       1.0  0.32450  0.10030  0.54130  1.0000
  H   H162      1.0  0.24940  0.15420  0.39850  1.0000
  O   O71       1.0  0.26153  0.67077  0.49180  1.0000
  O   O72       1.0  0.66338  0.15335  0.34520  1.0000
  C   C264      1.0  0.59620  0.23980  0.11410  1.0000
  C   C265      1.0  0.01750  0.74880  0.57600  1.0000
  C   C266      1.0  0.10260  0.89510  0.86170  1.0000
  C   C267      1.0  0.10360  0.94870  0.85360  1.0000
  C   C268      1.0  0.14530  0.05780  0.81190  1.0000
  C   C269      1.0  0.07860  0.10160  0.81320  1.0000
  C   C270      1.0  0.90380  0.73980  0.38590  1.0000
  C   C271      1.0  0.96690  0.77210  0.36150  1.0000
  C   C272      1.0  0.09650  0.78060  0.82670  1.0000
  H   H163      1.0  0.06410  0.72180  0.68990  1.0000
  H   H164      1.0  0.01300  0.71880  0.54160  1.0000
  H   H165      1.0  0.11940  0.87500  0.91040  1.0000
  H   H166      1.0  0.12230  0.97340  0.89550  1.0000
  H   H167      1.0  0.15870  0.02830  0.79700  1.0000
  C   C273      1.0  0.17500  0.09970  0.85560  1.0000
  C   C274      1.0  0.10790  0.14270  0.85690  1.0000
  H   H168      1.0  0.04510  0.10300  0.79860  1.0000
  H   H169      1.0  0.88740  0.73940  0.41760  1.0000
  C   C275      1.0  0.88780  0.70690  0.31970  1.0000
  C   C276      1.0  0.95050  0.74000  0.29410  1.0000
  H   H170      1.0  0.99490  0.79360  0.37660  1.0000
  C   C277      1.0  0.07440  0.74820  0.85720  1.0000
  C   C278      1.0  0.14500  0.77500  0.85340  1.0000
  H   H171      1.0  0.20840  0.09880  0.86930  1.0000
  C   C279      1.0  0.15740  0.14260  0.87960  1.0000
  H   H172      1.0  0.09450  0.17200  0.87230  1.0000
  H   H173      1.0  0.86080  0.68400  0.30630  1.0000
  C   C280      1.0  0.91060  0.70700  0.27280  1.0000
  H   H174      1.0  0.96660  0.74040  0.26180  1.0000
  H   H175      1.0  0.04060  0.75180  0.83850  1.0000
  C   C281      1.0  0.10030  0.70950  0.91530  1.0000
  C   C282      1.0  0.17070  0.73680  0.91070  1.0000
  H   H176      1.0  0.16110  0.79740  0.83230  1.0000
  P   P25       1.0  0.19576  0.19681  0.93629  1.0000
  P   P26       1.0  0.88982  0.66514  0.18427  1.0000
  H   H177      1.0  0.08410  0.68750  0.93650  1.0000
  C   C283      1.0  0.14890  0.70310  0.94210  1.0000
  H   H178      1.0  0.20460  0.73360  0.92930  1.0000
  O   O73       1.0  0.16644  0.23401  0.96140  1.0000
  O   O74       1.0  0.92073  0.61602  0.20450  1.0000
  O   O75       1.0  0.89788  0.69850  0.12150  1.0000
  P   P27       1.0  0.18191  0.64928  0.01042  1.0000
  H   H179      1.0  0.88530  0.71970  0.08360  1.0000
  O   O76       1.0  0.15985  0.64200  0.06810  1.0000
  O   O77       1.0  0.23500  0.66600  0.05600  1.0000
  O   O78       1.0  0.17550  0.60030  0.95870  1.0000
  H   H180      1.0  0.25060  0.65420  0.10150  1.0000
  O   O79       1.0  0.83662  0.65335  0.15480  1.0000
  O   O80       1.0  0.23847  0.17077  0.00820  1.0000
  O   O81       1.0  0.21215  0.22492  0.88060  1.0000
  O   O82       1.0  0.75214  0.19243  0.31570  1.0000
  P   P28       1.0  0.76000  0.15222  0.26289  1.0000
  O   O83       1.0  0.77626  0.18002  0.20690  1.0000
  O   O84       1.0  0.71501  0.11722  0.21440  1.0000
  C   C284      1.0  0.80710  0.10830  0.32870  1.0000
  H   H181      1.0  0.69730  0.12390  0.16700  1.0000
  C   C285      1.0  0.83940  0.08540  0.30580  1.0000
  C   C286      1.0  0.81360  0.09510  0.40480  1.0000
  C   C287      1.0  0.87450  0.05020  0.35700  1.0000
  H   H182      1.0  0.83730  0.09400  0.25470  1.0000
  H   H183      1.0  0.79280  0.11110  0.42300  1.0000
  C   C288      1.0  0.84900  0.05970  0.45600  1.0000
  C   C289      1.0  0.87950  0.03580  0.43130  1.0000
  H   H184      1.0  0.89610  0.03520  0.33990  1.0000
  H   H185      1.0  0.85210  0.05200  0.50800  1.0000
  C   C290      1.0  0.91780  0.99810  0.48610  1.0000
  C   C291      1.0  0.95830  0.01840  0.55050  1.0000
  C   C292      1.0  0.91280  0.94450  0.46650  1.0000
  N   N25       1.0  0.99314  0.98786  0.61180  1.0000
  C   C293      1.0  0.97110  0.07400  0.56200  1.0000
  N   N26       1.0  0.94678  0.90547  0.50960  1.0000
  C   C294      1.0  0.87630  0.92250  0.39180  1.0000
  C   C295      1.0  0.02600  0.02500  0.66300  1.0000
  C   C296      1.0  0.01320  0.07830  0.62950  1.0000
  H   H186      1.0  0.95300  0.10270  0.52760  1.0000
  C   C297      1.0  0.93320  0.86160  0.45950  1.0000
  H   H187      1.0  0.84800  0.94050  0.35320  1.0000
  C   C298      1.0  0.88910  0.87190  0.38600  1.0000
  N   N27       1.0  0.01253  0.83517  0.61790  1.0000
  N   N28       1.0  0.05080  0.91570  0.72830  1.0000
  C   C299      1.0  0.06390  0.01360  0.73960  1.0000
  H   H188      1.0  0.03120  0.11020  0.65140  1.0000
  C   C300      1.0  0.95800  0.81370  0.47550  1.0000
  H   H189      1.0  0.87230  0.84770  0.34220  1.0000
  C   C301      1.0  0.04300  0.80320  0.68310  1.0000
  C   C302      1.0  0.99560  0.80050  0.55200  1.0000
  C   C303      1.0  0.07100  0.87390  0.78200  1.0000
  C   C304      1.0  0.07182  0.96190  0.77170  1.0000
  C   C305      1.0  0.09600  0.05800  0.78920  1.0000
  C   C306      1.0  0.94300  0.77340  0.40800  1.0000
  C   C307      1.0  0.06800  0.82060  0.76230  1.0000
  C   C308      1.0  0.04560  0.75070  0.65650  1.0000
  O   O85       1.0  0.73847  0.67077  0.00820  1.0000
  O   O86       1.0  0.33662  0.15335  0.15480  1.0000
  O   O87       1.0  0.71215  0.72492  0.88060  1.0000
  O   O88       1.0  0.25214  0.69243  0.31570  1.0000
  P   P29       1.0  0.26000  0.65222  0.26289  1.0000
  O   O89       1.0  0.27626  0.68002  0.20690  1.0000
  O   O90       1.0  0.21501  0.61722  0.21440  1.0000
  C   C309      1.0  0.30710  0.60830  0.32870  1.0000
  H   H190      1.0  0.19730  0.62390  0.16700  1.0000
  C   C310      1.0  0.33940  0.58540  0.30580  1.0000
  C   C311      1.0  0.31360  0.59510  0.40480  1.0000
  C   C312      1.0  0.37450  0.55020  0.35700  1.0000
  H   H191      1.0  0.33730  0.59400  0.25470  1.0000
  H   H192      1.0  0.29280  0.61110  0.42300  1.0000
  C   C313      1.0  0.34900  0.55970  0.45600  1.0000
  C   C314      1.0  0.37950  0.53580  0.43130  1.0000
  H   H193      1.0  0.39610  0.53520  0.33990  1.0000
  H   H194      1.0  0.35210  0.55200  0.50800  1.0000
  C   C315      1.0  0.41780  0.49810  0.48610  1.0000
  C   C316      1.0  0.45830  0.51840  0.55050  1.0000
  C   C317      1.0  0.41280  0.44450  0.46650  1.0000
  N   N29       1.0  0.49314  0.48786  0.61180  1.0000
  C   C318      1.0  0.47110  0.57400  0.56200  1.0000
  N   N30       1.0  0.44678  0.40547  0.50960  1.0000
  C   C319      1.0  0.37630  0.42250  0.39180  1.0000
  C   C320      1.0  0.52600  0.52500  0.66300  1.0000
  C   C321      1.0  0.51320  0.57830  0.62950  1.0000
  H   H195      1.0  0.45300  0.60270  0.52760  1.0000
  C   C322      1.0  0.43320  0.36160  0.45950  1.0000
  H   H196      1.0  0.34800  0.44050  0.35320  1.0000
  C   C323      1.0  0.38910  0.37190  0.38600  1.0000
  N   N31       1.0  0.51253  0.33517  0.61790  1.0000
  N   N32       1.0  0.55080  0.41570  0.72830  1.0000
  C   C324      1.0  0.56390  0.51360  0.73960  1.0000
  H   H197      1.0  0.53120  0.61020  0.65140  1.0000
  C   C325      1.0  0.45800  0.31370  0.47550  1.0000
  H   H198      1.0  0.37230  0.34770  0.34220  1.0000
  C   C326      1.0  0.54300  0.30320  0.68310  1.0000
  C   C327      1.0  0.49560  0.30050  0.55200  1.0000
  C   C328      1.0  0.57100  0.37390  0.78200  1.0000
  C   C329      1.0  0.57182  0.46190  0.77170  1.0000
  C   C330      1.0  0.59600  0.55800  0.78920  1.0000
  C   C331      1.0  0.44300  0.27340  0.40800  1.0000
  C   C332      1.0  0.56800  0.32060  0.76230  1.0000
  C   C333      1.0  0.54560  0.25070  0.65650  1.0000
  C   C334      1.0  0.51750  0.24880  0.57600  1.0000
  C   C335      1.0  0.60260  0.39510  0.86170  1.0000
  C   C336      1.0  0.60360  0.44870  0.85360  1.0000
  C   C337      1.0  0.64530  0.55780  0.81190  1.0000
  C   C338      1.0  0.57860  0.60160  0.81320  1.0000
  C   C339      1.0  0.40380  0.23980  0.38590  1.0000
  C   C340      1.0  0.46690  0.27210  0.36150  1.0000
  C   C341      1.0  0.59650  0.28060  0.82670  1.0000
  H   H199      1.0  0.56410  0.22180  0.68990  1.0000
  H   H200      1.0  0.51300  0.21880  0.54160  1.0000
  H   H201      1.0  0.61940  0.37500  0.91040  1.0000
  H   H202      1.0  0.62230  0.47340  0.89550  1.0000
  H   H203      1.0  0.65870  0.52830  0.79700  1.0000
  C   C342      1.0  0.67500  0.59970  0.85560  1.0000
  C   C343      1.0  0.60790  0.64270  0.85690  1.0000
  H   H204      1.0  0.54510  0.60300  0.79860  1.0000
  H   H205      1.0  0.38740  0.23940  0.41760  1.0000
  C   C344      1.0  0.38780  0.20690  0.31970  1.0000
  C   C345      1.0  0.45050  0.24000  0.29410  1.0000
  H   H206      1.0  0.49490  0.29360  0.37660  1.0000
  C   C346      1.0  0.57440  0.24820  0.85720  1.0000
  C   C347      1.0  0.64500  0.27500  0.85340  1.0000
  H   H207      1.0  0.70840  0.59880  0.86930  1.0000
  C   C348      1.0  0.65740  0.64260  0.87960  1.0000
  H   H208      1.0  0.59450  0.67200  0.87230  1.0000
  H   H209      1.0  0.36080  0.18400  0.30630  1.0000
  C   C349      1.0  0.41060  0.20700  0.27280  1.0000
  H   H210      1.0  0.46660  0.24040  0.26180  1.0000
  H   H211      1.0  0.54060  0.25180  0.83850  1.0000
  C   C350      1.0  0.60030  0.20950  0.91530  1.0000
  C   C351      1.0  0.67070  0.23680  0.91070  1.0000
  H   H212      1.0  0.66110  0.29740  0.83230  1.0000
  P   P30       1.0  0.69576  0.69681  0.93629  1.0000
  P   P31       1.0  0.38982  0.16514  0.18427  1.0000
  H   H213      1.0  0.58410  0.18750  0.93650  1.0000
  C   C352      1.0  0.64890  0.20310  0.94210  1.0000
  H   H214      1.0  0.70460  0.23360  0.92930  1.0000
  O   O91       1.0  0.66644  0.73401  0.96140  1.0000
  O   O92       1.0  0.42073  0.11602  0.20450  1.0000
  O   O93       1.0  0.39788  0.19850  0.12150  1.0000
  P   P32       1.0  0.68191  0.14928  0.01042  1.0000
  H   H215      1.0  0.38530  0.21970  0.08360  1.0000
  O   O94       1.0  0.65985  0.14200  0.06810  1.0000
  O   O95       1.0  0.73500  0.16600  0.05600  1.0000
  O   O96       1.0  0.67550  0.10030  0.95870  1.0000
  H   H216      1.0  0.75060  0.15420  0.10150  1.0000
  Zn  Zn1       1.0  0.77950  0.30213  0.61653  1.0000
  Ni  Ni1       1.0  0.49952  0.41113  0.88283  1.0000
  Zn  Zn2       1.0  0.27950  0.19787  0.11653  1.0000
  Ni  Ni2       1.0  0.50048  0.41113  0.61717  1.0000
  Zn  Zn3       1.0  0.72050  0.19787  0.38347  1.0000
  Ni  Ni3       1.0  0.50048  0.58887  0.11717  1.0000
  Zn  Zn4       1.0  0.72050  0.80213  0.88347  1.0000
  Ni  Ni4       1.0  0.49952  0.58887  0.38283  1.0000
  Zn  Zn5       1.0  0.27950  0.80213  0.61653  1.0000
  Ni  Ni5       1.0  0.99952  0.91113  0.88283  1.0000
  Ni  Ni6       1.0  0.00048  0.91113  0.61717  1.0000
  Zn  Zn6       1.0  0.77950  0.69787  0.11653  1.0000
  Ni  Ni7       1.0  0.00048  0.08887  0.11717  1.0000
  Zn  Zn7       1.0  0.22050  0.69787  0.38347  1.0000
  Ni  Ni8       1.0  0.99952  0.08887  0.38283  1.0000
  Zn  Zn8       1.0  0.22050  0.30213  0.88347  1.0000
