data_image0
_chemical_formula_structural       O2C3HO2C3HOCHO2C3HO2C2O4C3HO2C3HO3C3HO2C3HO3C3HO2C3HC3OHO2C3HO4C3OHC2HCO5C3HC3HO5C3HC3HO5In9
_chemical_formula_sum              "O48 C54 H18 In9"
_cell_length_a       13.9508
_cell_length_b       13.9508
_cell_length_c       22.402
_cell_angle_alpha    90
_cell_angle_beta     90
_cell_angle_gamma    120

_space_group_name_H-M_alt    "P 1"
_space_group_IT_number       1

loop_
  _space_group_symop_operation_xyz
  'x, y, z'

loop_
  _atom_site_type_symbol
  _atom_site_label
  _atom_site_symmetry_multiplicity
  _atom_site_fract_x
  _atom_site_fract_y
  _atom_site_fract_z
  _atom_site_occupancy
  O   O1        1.0  0.43240  0.55510  0.09120  1.0000
  O   O2        1.0  0.24910  0.44050  0.10910  1.0000
  C   C1        1.0  0.33730  0.46860  0.08280  1.0000
  C   C2        1.0  0.32930  0.38860  0.03590  1.0000
  C   C3        1.0  0.25030  0.28960  0.02340  1.0000
  H   H1        1.0  0.18130  0.25170  0.04170  1.0000
  O   O3        1.0  0.55510  0.43240  0.90880  1.0000
  O   O4        1.0  0.44050  0.24910  0.89090  1.0000
  C   C4        1.0  0.46860  0.33730  0.91720  1.0000
  C   C5        1.0  0.38860  0.32930  0.96410  1.0000
  C   C6        1.0  0.28960  0.25030  0.97660  1.0000
  H   H2        1.0  0.25170  0.18130  0.95830  1.0000
  O   O5        1.0  0.42150  0.42150  0.00000  1.0000
  C   C7        1.0  0.95627  0.58363  0.30993  1.0000
  H   H3        1.0  0.91837  0.51463  0.29163  1.0000
  O   O6        1.0  0.09907  0.88843  0.42453  1.0000
  O   O7        1.0  0.91577  0.77383  0.44243  1.0000
  C   C8        1.0  0.00397  0.80193  0.41613  1.0000
  C   C9        1.0  0.99597  0.72193  0.36923  1.0000
  C   C10       1.0  0.91697  0.62293  0.35673  1.0000
  H   H4        1.0  0.84797  0.58503  0.37503  1.0000
  O   O8        1.0  0.10717  0.58243  0.22423  1.0000
  O   O9        1.0  0.22177  0.76573  0.24213  1.0000
  C   C11       1.0  0.05527  0.66263  0.29743  1.0000
  C   C12       1.0  0.13527  0.67063  0.25053  1.0000
  O   O10       1.0  0.08817  0.75483  0.33333  1.0000
  O   O11       1.0  0.75483  0.08817  0.66667  1.0000
  O   O12       1.0  0.88843  0.09907  0.57547  1.0000
  O   O13       1.0  0.77383  0.91577  0.55757  1.0000
  C   C13       1.0  0.80193  0.00397  0.58387  1.0000
  C   C14       1.0  0.72193  0.99597  0.63077  1.0000
  C   C15       1.0  0.62293  0.91697  0.64327  1.0000
  H   H5        1.0  0.58503  0.84797  0.62497  1.0000
  O   O14       1.0  0.76573  0.22177  0.75787  1.0000
  O   O15       1.0  0.58243  0.10717  0.77577  1.0000
  C   C16       1.0  0.67063  0.13527  0.74947  1.0000
  C   C17       1.0  0.66263  0.05527  0.70257  1.0000
  C   C18       1.0  0.58363  0.95627  0.69007  1.0000
  H   H6        1.0  0.51463  0.91837  0.70837  1.0000
  O   O16       1.0  0.57850  0.00000  0.00000  1.0000
  O   O17       1.0  0.44490  0.87730  0.09120  1.0000
  O   O18       1.0  0.55950  0.80860  0.10910  1.0000
  C   C19       1.0  0.53140  0.86870  0.08280  1.0000
  C   C20       1.0  0.61140  0.94070  0.03590  1.0000
  C   C21       1.0  0.71040  0.96070  0.02340  1.0000
  H   H7        1.0  0.74830  0.92960  0.04170  1.0000
  O   O19       1.0  0.56760  0.12270  0.90880  1.0000
  O   O20       1.0  0.75090  0.19140  0.89090  1.0000
  C   C22       1.0  0.66270  0.13130  0.91720  1.0000
  C   C23       1.0  0.67070  0.05930  0.96410  1.0000
  C   C24       1.0  0.74970  0.03930  0.97660  1.0000
  H   H8        1.0  0.81870  0.07040  0.95830  1.0000
  O   O21       1.0  0.23427  0.45603  0.24213  1.0000
  O   O22       1.0  0.41757  0.52473  0.22423  1.0000
  O   O23       1.0  0.24517  0.33333  0.33333  1.0000
  C   C25       1.0  0.33737  0.39263  0.29743  1.0000
  C   C26       1.0  0.41637  0.37263  0.30993  1.0000
  C   C27       1.0  0.32937  0.46463  0.25053  1.0000
  H   H9        1.0  0.48537  0.40373  0.29163  1.0000
  O   O24       1.0  0.11157  0.21063  0.42453  1.0000
  O   O25       1.0  0.22617  0.14193  0.44243  1.0000
  C   C28       1.0  0.19807  0.20203  0.41613  1.0000
  C   C29       1.0  0.27807  0.27403  0.36923  1.0000
  C   C30       1.0  0.37707  0.29403  0.35673  1.0000
  H   H10       1.0  0.41497  0.26293  0.37503  1.0000
  C   C31       1.0  0.86473  0.53537  0.74947  1.0000
  C   C32       1.0  0.94473  0.60737  0.70257  1.0000
  C   C33       1.0  0.04373  0.62737  0.69007  1.0000
  O   O26       1.0  0.91183  0.66667  0.66667  1.0000
  H   H11       1.0  0.08163  0.59627  0.70837  1.0000
  O   O27       1.0  0.90093  0.78937  0.57547  1.0000
  O   O28       1.0  0.08423  0.85807  0.55757  1.0000
  C   C34       1.0  0.99603  0.79797  0.58387  1.0000
  C   C35       1.0  0.00403  0.72597  0.63077  1.0000
  C   C36       1.0  0.08303  0.70597  0.64327  1.0000
  H   H12       1.0  0.15203  0.73707  0.62497  1.0000
  O   O29       1.0  0.77823  0.54397  0.75787  1.0000
  O   O30       1.0  0.89283  0.47527  0.77577  1.0000
  O   O31       1.0  0.12270  0.56760  0.09120  1.0000
  O   O32       1.0  0.19140  0.75090  0.10910  1.0000
  C   C37       1.0  0.13130  0.66270  0.08280  1.0000
  C   C38       1.0  0.05930  0.67070  0.03590  1.0000
  C   C39       1.0  0.03930  0.74970  0.02340  1.0000
  O   O33       1.0  0.00000  0.57850  0.00000  1.0000
  H   H13       1.0  0.07040  0.81870  0.04170  1.0000
  C   C40       1.0  0.94070  0.61140  0.96410  1.0000
  C   C41       1.0  0.96070  0.71040  0.97660  1.0000
  H   H14       1.0  0.92960  0.74830  0.95830  1.0000
  C   C42       1.0  0.86870  0.53140  0.91720  1.0000
  O   O34       1.0  0.87730  0.44490  0.90880  1.0000
  O   O35       1.0  0.80860  0.55950  0.89090  1.0000
  O   O36       1.0  0.66667  0.91183  0.33333  1.0000
  O   O37       1.0  0.78937  0.90093  0.42453  1.0000
  O   O38       1.0  0.85807  0.08423  0.44243  1.0000
  C   C43       1.0  0.79797  0.99603  0.41613  1.0000
  C   C44       1.0  0.72597  0.00403  0.36923  1.0000
  C   C45       1.0  0.70597  0.08303  0.35673  1.0000
  H   H15       1.0  0.73707  0.15203  0.37503  1.0000
  C   C46       1.0  0.53537  0.86473  0.25053  1.0000
  C   C47       1.0  0.60737  0.94473  0.29743  1.0000
  C   C48       1.0  0.62737  0.04373  0.30993  1.0000
  H   H16       1.0  0.59627  0.08163  0.29163  1.0000
  O   O39       1.0  0.54397  0.77823  0.24213  1.0000
  O   O40       1.0  0.47527  0.89283  0.22423  1.0000
  O   O41       1.0  0.33333  0.24517  0.66667  1.0000
  O   O42       1.0  0.45603  0.23427  0.75787  1.0000
  O   O43       1.0  0.52473  0.41757  0.77577  1.0000
  C   C49       1.0  0.46463  0.32937  0.74947  1.0000
  C   C50       1.0  0.39263  0.33737  0.70257  1.0000
  C   C51       1.0  0.37263  0.41637  0.69007  1.0000
  H   H17       1.0  0.40373  0.48537  0.70837  1.0000
  C   C52       1.0  0.20203  0.19807  0.58387  1.0000
  C   C53       1.0  0.27403  0.27807  0.63077  1.0000
  C   C54       1.0  0.29403  0.37707  0.64327  1.0000
  H   H18       1.0  0.26293  0.41497  0.62497  1.0000
  O   O44       1.0  0.21063  0.11157  0.57547  1.0000
  O   O45       1.0  0.14193  0.22617  0.55757  1.0000
  O   O46       1.0  0.33333  0.66667  0.16667  1.0000
  O   O47       1.0  0.00000  0.00000  0.50000  1.0000
  O   O48       1.0  0.66667  0.33333  0.83333  1.0000
  In  In1       1.0  0.47962  0.66667  0.16667  1.0000
  In  In2       1.0  0.14629  0.00000  0.50000  1.0000
  In  In3       1.0  0.33333  0.81296  0.16667  1.0000
  In  In4       1.0  0.00000  0.14629  0.50000  1.0000
  In  In5       1.0  0.18704  0.52038  0.16667  1.0000
  In  In6       1.0  0.85371  0.85371  0.50000  1.0000
  In  In7       1.0  0.66667  0.47962  0.83333  1.0000
  In  In8       1.0  0.81296  0.33333  0.83333  1.0000
  In  In9       1.0  0.52038  0.18704  0.83333  1.0000
