data_image0
_chemical_formula_structural       O4C4HC2HCOC2HC2HOCHC2HCHC3HCHCHCH3CH3O2C2OC6HCHC3HC2H2CHCHCOCHCHCHCH3OCH3OHCH3CH3O4C4HC2HCOC2HC2HOCHC2HCHC3HCHC2HCHCHOCH3O2C3OCOC2HCHC3HC2H2COCH3C2HCHCO4C4HC2HCOC2HC2HOCHC2HCHC3HCHCHCH3CH3O3C2OC6HCHC4HCH2CHCHC2HCHCHOCH3OCH3CHC2HCHC3HCHCHCH3CH3O4C4HC2HCOC2HC2HO2CH3C2HCHC2HCHCHOCH3O2C3OCOC2HCHC5H3CO4C4HC2HCOC2HC2HOCHC2HCHC3HCHCHCH3CH3C2HC2HCOC2HC2HOCHC2HCHC3HCHCHCH3CH3O4C2HO4C4HC2HCOC2HC2HOCHC2HCHC3HCHCHCH3CH2O4C4HC2HCOC2HC2HOCHC2HCHC3HCHCHCH3CH3Dy8
_chemical_formula_sum              "O72 C264 H192 Dy8"
_cell_length_a       36.381
_cell_length_b       10.5197
_cell_length_c       19.9818
_cell_angle_alpha    90
_cell_angle_beta     100.006
_cell_angle_gamma    90

_space_group_name_H-M_alt    "P 1"
_space_group_IT_number       1

loop_
  _space_group_symop_operation_xyz
  'x, y, z'

loop_
  _atom_site_type_symbol
  _atom_site_label
  _atom_site_symmetry_multiplicity
  _atom_site_fract_x
  _atom_site_fract_y
  _atom_site_fract_z
  _atom_site_occupancy
  O   O1        1.0  0.53079  0.41510  0.55890  1.0000
  O   O2        1.0  0.95397  0.04580  0.68360  1.0000
  O   O3        1.0  0.94873  0.03740  0.79130  1.0000
  O   O4        1.0  0.53618  0.33560  0.45930  1.0000
  C   C1        1.0  0.89447  0.07490  0.71090  1.0000
  C   C2        1.0  0.93533  0.05030  0.72990  1.0000
  C   C3        1.0  0.54841  0.35650  0.52100  1.0000
  C   C4        1.0  0.87707  0.08160  0.64410  1.0000
  H   H1        1.0  0.89058  0.06415  0.60966  1.0000
  C   C5        1.0  0.58664  0.31020  0.55000  1.0000
  C   C6        1.0  0.75191  0.10730  0.69090  1.0000
  H   H2        1.0  0.75982  0.04627  0.72396  1.0000
  C   C7        1.0  0.66110  0.24700  0.59930  1.0000
  O   O5        1.0  0.68875  0.06810  0.70460  1.0000
  C   C8        1.0  0.81835  0.13700  0.67810  1.0000
  C   C9        1.0  0.87313  0.09700  0.76150  1.0000
  H   H3        1.0  0.88430  0.09128  0.80693  1.0000
  C   C10       1.0  0.77833  0.17070  0.65970  1.0000
  C   C11       1.0  0.83552  0.12750  0.74500  1.0000
  H   H4        1.0  0.82179  0.14156  0.77947  1.0000
  O   O6        1.0  0.79086  0.33420  0.58510  1.0000
  C   C12       1.0  0.60903  0.25950  0.50680  1.0000
  H   H5        1.0  0.59932  0.24694  0.46104  1.0000
  C   C13       1.0  0.70156  0.22340  0.62410  1.0000
  C   C14       1.0  0.83958  0.11410  0.62730  1.0000
  H   H6        1.0  0.82848  0.12073  0.58191  1.0000
  C   C15       1.0  0.60150  0.32520  0.61750  1.0000
  H   H7        1.0  0.58665  0.35686  0.64709  1.0000
  C   C16       1.0  0.71398  0.13450  0.67320  1.0000
  C   C17       1.0  0.76592  0.26050  0.61130  1.0000
  C   C18       1.0  0.64577  0.22790  0.53200  1.0000
  H   H8        1.0  0.66042  0.19311  0.50285  1.0000
  C   C19       1.0  0.72676  0.28640  0.59350  1.0000
  H   H9        1.0  0.71848  0.34730  0.56055  1.0000
  C   C20       1.0  0.63820  0.29400  0.64190  1.0000
  H   H10       1.0  0.64764  0.30470  0.68790  1.0000
  C   C21       1.0  0.77760  0.44690  0.54280  1.0000
  H   H11       1.0  0.75827  0.42156  0.50620  1.0000
  H   H12       1.0  0.79802  0.48287  0.52456  1.0000
  H   H13       1.0  0.76793  0.50919  0.57030  1.0000
  C   C22       1.0  0.70330  0.96230  0.74940  1.0000
  H   H14       1.0  0.71781  0.90692  0.72607  1.0000
  H   H15       1.0  0.68288  0.91571  0.76204  1.0000
  H   H16       1.0  0.71878  0.99523  0.78954  1.0000
  O   O7        1.0  0.93741  0.65870  0.35880  1.0000
  O   O8        1.0  0.54715  0.67010  0.57860  1.0000
  C   C23       1.0  0.89230  0.74330  0.41920  1.0000
  C   C24       1.0  0.93020  0.74280  0.39860  1.0000
  O   O9        1.0  0.56259  0.84130  0.64120  1.0000
  C   C25       1.0  0.78490  0.74790  0.47910  1.0000
  C   C26       1.0  0.60770  0.75670  0.58080  1.0000
  C   C27       1.0  0.56980  0.75720  0.60140  1.0000
  C   C28       1.0  0.71790  0.72610  0.45420  1.0000
  C   C29       1.0  0.71510  0.75210  0.52090  1.0000
  C   C30       1.0  0.87990  0.84980  0.44770  1.0000
  H   H17       1.0  0.89498  0.92163  0.45461  1.0000
  C   C31       1.0  0.75180  0.72440  0.43220  1.0000
  H   H18       1.0  0.75284  0.70797  0.38686  1.0000
  C   C32       1.0  0.82190  0.74670  0.45580  1.0000
  C   C33       1.0  0.84490  0.85120  0.46630  1.0000
  C   C34       1.0  0.78210  0.77390  0.54580  1.0000
  H   H19       1.0  0.83684  0.92373  0.48612  1.0000
  C   C35       1.0  0.86890  0.63980  0.40800  1.0000
  C   C36       1.0  0.83400  0.64050  0.42600  1.0000
  H   H20       1.0  0.81873  0.56922  0.41809  1.0000
  H   H21       1.0  0.87682  0.56760  0.38771  1.0000
  C   C37       1.0  0.62010  0.65020  0.55230  1.0000
  H   H22       1.0  0.60502  0.57837  0.54539  1.0000
  C   C38       1.0  0.74820  0.77560  0.56780  1.0000
  H   H23       1.0  0.74716  0.79203  0.61314  1.0000
  C   C39       1.0  0.67810  0.75330  0.54420  1.0000
  O   O10       1.0  0.68630  0.71110  0.40790  1.0000
  C   C40       1.0  0.65510  0.64880  0.53370  1.0000
  H   H24       1.0  0.66316  0.57627  0.51388  1.0000
  C   C41       1.0  0.63110  0.86020  0.59200  1.0000
  H   H25       1.0  0.62318  0.93240  0.61229  1.0000
  C   C42       1.0  0.66600  0.85950  0.57400  1.0000
  H   H26       1.0  0.68127  0.93078  0.58191  1.0000
  C   C43       1.0  0.69640  0.70200  0.33240  1.0000
  H   H27       1.0  0.67423  0.68312  0.30035  1.0000
  H   H28       1.0  0.71442  0.63544  0.33129  1.0000
  H   H29       1.0  0.70665  0.78130  0.32084  1.0000
  O   O11       1.0  0.81370  0.78890  0.59210  1.0000
  C   C44       1.0  0.80360  0.79800  0.66760  1.0000
  H   H30       1.0  0.78558  0.86456  0.66871  1.0000
  H   H31       1.0  0.82577  0.81688  0.69965  1.0000
  H   H32       1.0  0.79335  0.71870  0.67916  1.0000
  O   O12       1.0  0.95285  0.82990  0.42140  1.0000
  H   H33       1.0  0.14764  0.80470  0.68790  1.0000
  C   C45       1.0  0.27760  0.94690  0.54280  1.0000
  H   H34       1.0  0.25827  0.92156  0.50620  1.0000
  H   H35       1.0  0.29802  0.98287  0.52456  1.0000
  H   H36       1.0  0.26793  0.00919  0.57030  1.0000
  C   C46       1.0  0.20330  0.46230  0.74940  1.0000
  H   H37       1.0  0.21781  0.40692  0.72607  1.0000
  H   H38       1.0  0.18288  0.41571  0.76204  1.0000
  H   H39       1.0  0.21878  0.49523  0.78954  1.0000
  O   O13       1.0  0.03079  0.91510  0.55890  1.0000
  O   O14       1.0  0.45397  0.54580  0.68360  1.0000
  O   O15       1.0  0.44873  0.53740  0.79130  1.0000
  O   O16       1.0  0.03618  0.83560  0.45930  1.0000
  C   C47       1.0  0.39447  0.57490  0.71090  1.0000
  C   C48       1.0  0.43533  0.55030  0.72990  1.0000
  C   C49       1.0  0.04841  0.85650  0.52100  1.0000
  C   C50       1.0  0.37707  0.58160  0.64410  1.0000
  H   H40       1.0  0.39058  0.56415  0.60966  1.0000
  C   C51       1.0  0.08664  0.81020  0.55000  1.0000
  C   C52       1.0  0.25191  0.60730  0.69090  1.0000
  H   H41       1.0  0.25982  0.54627  0.72396  1.0000
  C   C53       1.0  0.16110  0.74700  0.59930  1.0000
  O   O17       1.0  0.18875  0.56810  0.70460  1.0000
  C   C54       1.0  0.31835  0.63700  0.67810  1.0000
  C   C55       1.0  0.37313  0.59700  0.76150  1.0000
  H   H42       1.0  0.38430  0.59128  0.80693  1.0000
  C   C56       1.0  0.27833  0.67070  0.65970  1.0000
  C   C57       1.0  0.33552  0.62750  0.74500  1.0000
  H   H43       1.0  0.32179  0.64156  0.77947  1.0000
  O   O18       1.0  0.29086  0.83420  0.58510  1.0000
  C   C58       1.0  0.10903  0.75950  0.50680  1.0000
  H   H44       1.0  0.09932  0.74694  0.46104  1.0000
  C   C59       1.0  0.20156  0.72340  0.62410  1.0000
  C   C60       1.0  0.33958  0.61410  0.62730  1.0000
  H   H45       1.0  0.32848  0.62073  0.58191  1.0000
  C   C61       1.0  0.10150  0.82520  0.61750  1.0000
  H   H46       1.0  0.08665  0.85686  0.64709  1.0000
  C   C62       1.0  0.21398  0.63450  0.67320  1.0000
  C   C63       1.0  0.26592  0.76050  0.61130  1.0000
  C   C64       1.0  0.14577  0.72790  0.53200  1.0000
  H   H47       1.0  0.16042  0.69311  0.50285  1.0000
  C   C65       1.0  0.22676  0.78640  0.59350  1.0000
  H   H48       1.0  0.21848  0.84730  0.56055  1.0000
  C   C66       1.0  0.13820  0.79400  0.64190  1.0000
  C   C67       1.0  0.15510  0.14880  0.53370  1.0000
  H   H49       1.0  0.16316  0.07627  0.51388  1.0000
  C   C68       1.0  0.13110  0.36020  0.59200  1.0000
  H   H50       1.0  0.12318  0.43240  0.61229  1.0000
  C   C69       1.0  0.16600  0.35950  0.57400  1.0000
  H   H51       1.0  0.18127  0.43078  0.58191  1.0000
  O   O19       1.0  0.31370  0.28890  0.59210  1.0000
  C   C70       1.0  0.30360  0.29800  0.66760  1.0000
  H   H52       1.0  0.28558  0.36456  0.66871  1.0000
  H   H53       1.0  0.32577  0.31688  0.69965  1.0000
  H   H54       1.0  0.29335  0.21870  0.67916  1.0000
  O   O20       1.0  0.45285  0.32990  0.42140  1.0000
  O   O21       1.0  0.43741  0.15870  0.35880  1.0000
  C   C71       1.0  0.39230  0.24330  0.41920  1.0000
  C   C72       1.0  0.43020  0.24280  0.39860  1.0000
  C   C73       1.0  0.28490  0.24790  0.47910  1.0000
  O   O22       1.0  0.04715  0.17010  0.57860  1.0000
  C   C74       1.0  0.21790  0.22610  0.45420  1.0000
  O   O23       1.0  0.06259  0.34130  0.64120  1.0000
  C   C75       1.0  0.37990  0.34980  0.44770  1.0000
  C   C76       1.0  0.25180  0.22440  0.43220  1.0000
  H   H55       1.0  0.25284  0.20797  0.38686  1.0000
  C   C77       1.0  0.32190  0.24670  0.45580  1.0000
  H   H56       1.0  0.39498  0.42163  0.45461  1.0000
  C   C78       1.0  0.34490  0.35120  0.46630  1.0000
  C   C79       1.0  0.10770  0.25670  0.58080  1.0000
  C   C80       1.0  0.06980  0.25720  0.60140  1.0000
  H   H57       1.0  0.33684  0.42373  0.48612  1.0000
  C   C81       1.0  0.33400  0.14050  0.42600  1.0000
  C   C82       1.0  0.36890  0.13980  0.40800  1.0000
  H   H58       1.0  0.31873  0.06922  0.41809  1.0000
  H   H59       1.0  0.37682  0.06760  0.38771  1.0000
  C   C83       1.0  0.21510  0.25210  0.52090  1.0000
  O   O24       1.0  0.18630  0.21110  0.40790  1.0000
  C   C84       1.0  0.19640  0.20200  0.33240  1.0000
  H   H60       1.0  0.21442  0.13544  0.33129  1.0000
  H   H61       1.0  0.17423  0.18312  0.30035  1.0000
  H   H62       1.0  0.20665  0.28130  0.32084  1.0000
  C   C85       1.0  0.28210  0.27390  0.54580  1.0000
  C   C86       1.0  0.12010  0.15020  0.55230  1.0000
  H   H63       1.0  0.10502  0.07837  0.54539  1.0000
  C   C87       1.0  0.24820  0.27560  0.56780  1.0000
  H   H64       1.0  0.24716  0.29203  0.61314  1.0000
  C   C88       1.0  0.17810  0.25330  0.54420  1.0000
  O   O25       1.0  0.46921  0.41510  0.94110  1.0000
  O   O26       1.0  0.04603  0.04580  0.81640  1.0000
  O   O27       1.0  0.05127  0.03740  0.70870  1.0000
  O   O28       1.0  0.46382  0.33560  0.04070  1.0000
  C   C89       1.0  0.10553  0.07490  0.78910  1.0000
  C   C90       1.0  0.06467  0.05030  0.77010  1.0000
  C   C91       1.0  0.45159  0.35650  0.97900  1.0000
  C   C92       1.0  0.12293  0.08160  0.85590  1.0000
  H   H65       1.0  0.10942  0.06415  0.89034  1.0000
  C   C93       1.0  0.41336  0.31020  0.95000  1.0000
  C   C94       1.0  0.24809  0.10730  0.80910  1.0000
  H   H66       1.0  0.24018  0.04627  0.77604  1.0000
  C   C95       1.0  0.33890  0.24700  0.90070  1.0000
  O   O29       1.0  0.31125  0.06810  0.79540  1.0000
  C   C96       1.0  0.18165  0.13700  0.82190  1.0000
  C   C97       1.0  0.12687  0.09700  0.73850  1.0000
  H   H67       1.0  0.11570  0.09128  0.69307  1.0000
  C   C98       1.0  0.22167  0.17070  0.84030  1.0000
  C   C99       1.0  0.16448  0.12750  0.75500  1.0000
  H   H68       1.0  0.17821  0.14156  0.72053  1.0000
  O   O30       1.0  0.20914  0.33420  0.91490  1.0000
  C   C100      1.0  0.39097  0.25950  0.99320  1.0000
  H   H69       1.0  0.40068  0.24694  0.03896  1.0000
  C   C101      1.0  0.29844  0.22340  0.87590  1.0000
  C   C102      1.0  0.16042  0.11410  0.87270  1.0000
  H   H70       1.0  0.17152  0.12073  0.91809  1.0000
  C   C103      1.0  0.39850  0.32520  0.88250  1.0000
  H   H71       1.0  0.41335  0.35686  0.85291  1.0000
  C   C104      1.0  0.28602  0.13450  0.82680  1.0000
  C   C105      1.0  0.23408  0.26050  0.88870  1.0000
  C   C106      1.0  0.35423  0.22790  0.96800  1.0000
  H   H72       1.0  0.33958  0.19311  0.99715  1.0000
  C   C107      1.0  0.27324  0.28640  0.90650  1.0000
  H   H73       1.0  0.28152  0.34730  0.93945  1.0000
  C   C108      1.0  0.36180  0.29400  0.85810  1.0000
  H   H74       1.0  0.35236  0.30470  0.81210  1.0000
  C   C109      1.0  0.22240  0.44690  0.95720  1.0000
  H   H75       1.0  0.24173  0.42156  0.99380  1.0000
  H   H76       1.0  0.20198  0.48287  0.97544  1.0000
  H   H77       1.0  0.23207  0.50919  0.92970  1.0000
  C   C110      1.0  0.29670  0.96230  0.75060  1.0000
  H   H78       1.0  0.28219  0.90692  0.77393  1.0000
  H   H79       1.0  0.31712  0.91571  0.73796  1.0000
  H   H80       1.0  0.28122  0.99523  0.71046  1.0000
  O   O31       1.0  0.04715  0.82990  0.07860  1.0000
  O   O32       1.0  0.06259  0.65870  0.14120  1.0000
  O   O33       1.0  0.45285  0.67010  0.92140  1.0000
  C   C111      1.0  0.10770  0.74330  0.08080  1.0000
  C   C112      1.0  0.06980  0.74280  0.10140  1.0000
  O   O34       1.0  0.43741  0.84130  0.85880  1.0000
  C   C113      1.0  0.21510  0.74790  0.02090  1.0000
  C   C114      1.0  0.39230  0.75670  0.91920  1.0000
  C   C115      1.0  0.43020  0.75720  0.89860  1.0000
  C   C116      1.0  0.28210  0.72610  0.04580  1.0000
  C   C117      1.0  0.28490  0.75210  0.97910  1.0000
  C   C118      1.0  0.12010  0.84980  0.05230  1.0000
  H   H81       1.0  0.10502  0.92163  0.04539  1.0000
  C   C119      1.0  0.24820  0.72440  0.06780  1.0000
  H   H82       1.0  0.24716  0.70797  0.11314  1.0000
  C   C120      1.0  0.17810  0.74670  0.04420  1.0000
  C   C121      1.0  0.15510  0.85120  0.03370  1.0000
  C   C122      1.0  0.21790  0.77390  0.95420  1.0000
  C   C123      1.0  0.13110  0.63980  0.09200  1.0000
  H   H83       1.0  0.16316  0.92373  0.01388  1.0000
  C   C124      1.0  0.16600  0.64050  0.07400  1.0000
  H   H84       1.0  0.18127  0.56922  0.08191  1.0000
  H   H85       1.0  0.12318  0.56760  0.11229  1.0000
  C   C125      1.0  0.37990  0.65020  0.94770  1.0000
  H   H86       1.0  0.39498  0.57837  0.95461  1.0000
  C   C126      1.0  0.25180  0.77560  0.93220  1.0000
  H   H87       1.0  0.25284  0.79203  0.88686  1.0000
  C   C127      1.0  0.32190  0.75330  0.95580  1.0000
  C   C128      1.0  0.34490  0.64880  0.96630  1.0000
  H   H88       1.0  0.33684  0.57627  0.98612  1.0000
  C   C129      1.0  0.36890  0.86020  0.90800  1.0000
  H   H89       1.0  0.37682  0.93240  0.88771  1.0000
  C   C130      1.0  0.33400  0.85950  0.92600  1.0000
  H   H90       1.0  0.31873  0.93078  0.91809  1.0000
  O   O35       1.0  0.31370  0.71110  0.09210  1.0000
  C   C131      1.0  0.30360  0.70200  0.16760  1.0000
  H   H91       1.0  0.28558  0.63544  0.16871  1.0000
  H   H92       1.0  0.32577  0.68312  0.19965  1.0000
  H   H93       1.0  0.29335  0.78130  0.17916  1.0000
  O   O36       1.0  0.18630  0.78890  0.90790  1.0000
  C   C132      1.0  0.19640  0.79800  0.83240  1.0000
  H   H94       1.0  0.21442  0.86456  0.83129  1.0000
  H   H95       1.0  0.17423  0.81688  0.80035  1.0000
  H   H96       1.0  0.20665  0.71870  0.82084  1.0000
  C   C133      1.0  0.89097  0.75950  0.99320  1.0000
  H   H97       1.0  0.90068  0.74694  0.03896  1.0000
  C   C134      1.0  0.79844  0.72340  0.87590  1.0000
  C   C135      1.0  0.66042  0.61410  0.87270  1.0000
  H   H98       1.0  0.67152  0.62073  0.91809  1.0000
  C   C136      1.0  0.89850  0.82520  0.88250  1.0000
  H   H99       1.0  0.91335  0.85686  0.85291  1.0000
  C   C137      1.0  0.78602  0.63450  0.82680  1.0000
  C   C138      1.0  0.73408  0.76050  0.88870  1.0000
  C   C139      1.0  0.85423  0.72790  0.96800  1.0000
  H   H100      1.0  0.83958  0.69311  0.99715  1.0000
  C   C140      1.0  0.77324  0.78640  0.90650  1.0000
  H   H101      1.0  0.78152  0.84730  0.93945  1.0000
  C   C141      1.0  0.86180  0.79400  0.85810  1.0000
  H   H102      1.0  0.85236  0.80470  0.81210  1.0000
  C   C142      1.0  0.72240  0.94690  0.95720  1.0000
  H   H103      1.0  0.74173  0.92156  0.99380  1.0000
  H   H104      1.0  0.70198  0.98287  0.97544  1.0000
  H   H105      1.0  0.73207  0.00919  0.92970  1.0000
  C   C143      1.0  0.79670  0.46230  0.75060  1.0000
  H   H106      1.0  0.78219  0.40692  0.77393  1.0000
  H   H107      1.0  0.81712  0.41571  0.73796  1.0000
  H   H108      1.0  0.78122  0.49523  0.71046  1.0000
  O   O37       1.0  0.96921  0.91510  0.94110  1.0000
  O   O38       1.0  0.54603  0.54580  0.81640  1.0000
  O   O39       1.0  0.55127  0.53740  0.70870  1.0000
  O   O40       1.0  0.96382  0.83560  0.04070  1.0000
  C   C144      1.0  0.60553  0.57490  0.78910  1.0000
  C   C145      1.0  0.56467  0.55030  0.77010  1.0000
  C   C146      1.0  0.95159  0.85650  0.97900  1.0000
  C   C147      1.0  0.62293  0.58160  0.85590  1.0000
  H   H109      1.0  0.60942  0.56415  0.89034  1.0000
  C   C148      1.0  0.91336  0.81020  0.95000  1.0000
  C   C149      1.0  0.74809  0.60730  0.80910  1.0000
  H   H110      1.0  0.74018  0.54627  0.77604  1.0000
  C   C150      1.0  0.83890  0.74700  0.90070  1.0000
  O   O41       1.0  0.81125  0.56810  0.79540  1.0000
  C   C151      1.0  0.68165  0.63700  0.82190  1.0000
  C   C152      1.0  0.62687  0.59700  0.73850  1.0000
  H   H111      1.0  0.61570  0.59128  0.69307  1.0000
  C   C153      1.0  0.72167  0.67070  0.84030  1.0000
  C   C154      1.0  0.66448  0.62750  0.75500  1.0000
  H   H112      1.0  0.67821  0.64156  0.72053  1.0000
  O   O42       1.0  0.70914  0.83420  0.91490  1.0000
  O   O43       1.0  0.81370  0.21110  0.09210  1.0000
  C   C155      1.0  0.80360  0.20200  0.16760  1.0000
  H   H113      1.0  0.78558  0.13544  0.16871  1.0000
  H   H114      1.0  0.82577  0.18312  0.19965  1.0000
  H   H115      1.0  0.79335  0.28130  0.17916  1.0000
  C   C156      1.0  0.71790  0.27390  0.95420  1.0000
  C   C157      1.0  0.87990  0.15020  0.94770  1.0000
  H   H116      1.0  0.89498  0.07837  0.95461  1.0000
  C   C158      1.0  0.75180  0.27560  0.93220  1.0000
  H   H117      1.0  0.75284  0.29203  0.88686  1.0000
  C   C159      1.0  0.82190  0.25330  0.95580  1.0000
  C   C160      1.0  0.84490  0.14880  0.96630  1.0000
  H   H118      1.0  0.83684  0.07627  0.98612  1.0000
  C   C161      1.0  0.86890  0.36020  0.90800  1.0000
  H   H119      1.0  0.87682  0.43240  0.88771  1.0000
  C   C162      1.0  0.83400  0.35950  0.92600  1.0000
  H   H120      1.0  0.81873  0.43078  0.91809  1.0000
  O   O44       1.0  0.68630  0.28890  0.90790  1.0000
  C   C163      1.0  0.69640  0.29800  0.83240  1.0000
  H   H121      1.0  0.71442  0.36456  0.83129  1.0000
  H   H122      1.0  0.67423  0.31688  0.80035  1.0000
  H   H123      1.0  0.70665  0.21870  0.82084  1.0000
  O   O45       1.0  0.54715  0.32990  0.07860  1.0000
  O   O46       1.0  0.56259  0.15870  0.14120  1.0000
  C   C164      1.0  0.60770  0.24330  0.08080  1.0000
  C   C165      1.0  0.56980  0.24280  0.10140  1.0000
  C   C166      1.0  0.71510  0.24790  0.02090  1.0000
  O   O47       1.0  0.95285  0.17010  0.92140  1.0000
  C   C167      1.0  0.78210  0.22610  0.04580  1.0000
  O   O48       1.0  0.93741  0.34130  0.85880  1.0000
  C   C168      1.0  0.62010  0.34980  0.05230  1.0000
  C   C169      1.0  0.74820  0.22440  0.06780  1.0000
  H   H124      1.0  0.74716  0.20797  0.11314  1.0000
  C   C170      1.0  0.67810  0.24670  0.04420  1.0000
  H   H125      1.0  0.60502  0.42163  0.04539  1.0000
  C   C171      1.0  0.65510  0.35120  0.03370  1.0000
  C   C172      1.0  0.89230  0.25670  0.91920  1.0000
  C   C173      1.0  0.93020  0.25720  0.89860  1.0000
  C   C174      1.0  0.63110  0.13980  0.09200  1.0000
  C   C175      1.0  0.66600  0.14050  0.07400  1.0000
  H   H126      1.0  0.68127  0.06922  0.08191  1.0000
  H   H127      1.0  0.66316  0.42373  0.01388  1.0000
  H   H128      1.0  0.62318  0.06760  0.11229  1.0000
  C   C176      1.0  0.78490  0.25210  0.97910  1.0000
  O   O49       1.0  0.46921  0.58490  0.44110  1.0000
  O   O50       1.0  0.04603  0.95420  0.31640  1.0000
  O   O51       1.0  0.05127  0.96260  0.20870  1.0000
  O   O52       1.0  0.46382  0.66440  0.54070  1.0000
  C   C177      1.0  0.10553  0.92510  0.28910  1.0000
  C   C178      1.0  0.06467  0.94970  0.27010  1.0000
  C   C179      1.0  0.45159  0.64350  0.47900  1.0000
  C   C180      1.0  0.12293  0.91840  0.35590  1.0000
  H   H129      1.0  0.10942  0.93585  0.39034  1.0000
  C   C181      1.0  0.41336  0.68980  0.45000  1.0000
  C   C182      1.0  0.24809  0.89270  0.30910  1.0000
  H   H130      1.0  0.24018  0.95373  0.27604  1.0000
  C   C183      1.0  0.33890  0.75300  0.40070  1.0000
  O   O53       1.0  0.31125  0.93190  0.29540  1.0000
  C   C184      1.0  0.18165  0.86300  0.32190  1.0000
  C   C185      1.0  0.12687  0.90300  0.23850  1.0000
  H   H131      1.0  0.11570  0.90872  0.19307  1.0000
  C   C186      1.0  0.22167  0.82930  0.34030  1.0000
  C   C187      1.0  0.16448  0.87250  0.25500  1.0000
  H   H132      1.0  0.17821  0.85844  0.22053  1.0000
  O   O54       1.0  0.20914  0.66580  0.41490  1.0000
  C   C188      1.0  0.39097  0.74050  0.49320  1.0000
  H   H133      1.0  0.40068  0.75306  0.53896  1.0000
  C   C189      1.0  0.29844  0.77660  0.37590  1.0000
  C   C190      1.0  0.16042  0.88590  0.37270  1.0000
  H   H134      1.0  0.17152  0.87927  0.41809  1.0000
  C   C191      1.0  0.39850  0.67480  0.38250  1.0000
  H   H135      1.0  0.41335  0.64314  0.35291  1.0000
  C   C192      1.0  0.28602  0.86550  0.32680  1.0000
  C   C193      1.0  0.23408  0.73950  0.38870  1.0000
  C   C194      1.0  0.35423  0.77210  0.46800  1.0000
  H   H136      1.0  0.33958  0.80689  0.49715  1.0000
  C   C195      1.0  0.27324  0.71360  0.40650  1.0000
  H   H137      1.0  0.28152  0.65270  0.43945  1.0000
  C   C196      1.0  0.36180  0.70600  0.35810  1.0000
  H   H138      1.0  0.35236  0.69530  0.31210  1.0000
  C   C197      1.0  0.22240  0.55310  0.45720  1.0000
  H   H139      1.0  0.24173  0.57844  0.49380  1.0000
  H   H140      1.0  0.20198  0.51713  0.47544  1.0000
  H   H141      1.0  0.23207  0.49081  0.42970  1.0000
  C   C198      1.0  0.29670  0.03770  0.25060  1.0000
  H   H142      1.0  0.28219  0.09308  0.27393  1.0000
  H   H143      1.0  0.31712  0.08429  0.23796  1.0000
  H   H144      1.0  0.28122  0.00477  0.21046  1.0000
  C   C199      1.0  0.95159  0.14350  0.47900  1.0000
  C   C200      1.0  0.62293  0.41840  0.35590  1.0000
  H   H145      1.0  0.60942  0.43585  0.39034  1.0000
  C   C201      1.0  0.91336  0.18980  0.45000  1.0000
  C   C202      1.0  0.74809  0.39270  0.30910  1.0000
  H   H146      1.0  0.74018  0.45373  0.27604  1.0000
  C   C203      1.0  0.83890  0.25300  0.40070  1.0000
  O   O55       1.0  0.81125  0.43190  0.29540  1.0000
  C   C204      1.0  0.68165  0.36300  0.32190  1.0000
  C   C205      1.0  0.62687  0.40300  0.23850  1.0000
  H   H147      1.0  0.61570  0.40872  0.19307  1.0000
  C   C206      1.0  0.72167  0.32930  0.34030  1.0000
  C   C207      1.0  0.66448  0.37250  0.25500  1.0000
  H   H148      1.0  0.67821  0.35844  0.22053  1.0000
  O   O56       1.0  0.70914  0.16580  0.41490  1.0000
  C   C208      1.0  0.89097  0.24050  0.49320  1.0000
  H   H149      1.0  0.90068  0.25306  0.53896  1.0000
  C   C209      1.0  0.79844  0.27660  0.37590  1.0000
  C   C210      1.0  0.66042  0.38590  0.37270  1.0000
  H   H150      1.0  0.67152  0.37927  0.41809  1.0000
  C   C211      1.0  0.89850  0.17480  0.38250  1.0000
  H   H151      1.0  0.91335  0.14314  0.35291  1.0000
  C   C212      1.0  0.78602  0.36550  0.32680  1.0000
  C   C213      1.0  0.73408  0.23950  0.38870  1.0000
  C   C214      1.0  0.85423  0.27210  0.46800  1.0000
  H   H152      1.0  0.83958  0.30689  0.49715  1.0000
  C   C215      1.0  0.77324  0.21360  0.40650  1.0000
  H   H153      1.0  0.78152  0.15270  0.43945  1.0000
  C   C216      1.0  0.86180  0.20600  0.35810  1.0000
  H   H154      1.0  0.85236  0.19530  0.31210  1.0000
  C   C217      1.0  0.72240  0.05310  0.45720  1.0000
  H   H155      1.0  0.74173  0.07844  0.49380  1.0000
  H   H156      1.0  0.70198  0.01713  0.47544  1.0000
  H   H157      1.0  0.73207  0.99081  0.42970  1.0000
  C   C218      1.0  0.79670  0.53770  0.25060  1.0000
  H   H158      1.0  0.78219  0.59308  0.27393  1.0000
  H   H159      1.0  0.81712  0.58429  0.23796  1.0000
  H   H160      1.0  0.78122  0.50477  0.21046  1.0000
  O   O57       1.0  0.96921  0.08490  0.44110  1.0000
  O   O58       1.0  0.54603  0.45420  0.31640  1.0000
  O   O59       1.0  0.55127  0.46260  0.20870  1.0000
  O   O60       1.0  0.96382  0.16440  0.54070  1.0000
  C   C219      1.0  0.60553  0.42510  0.28910  1.0000
  C   C220      1.0  0.56467  0.44970  0.27010  1.0000
  H   H161      1.0  0.71878  0.00477  0.28954  1.0000
  O   O61       1.0  0.53079  0.58490  0.05890  1.0000
  O   O62       1.0  0.95397  0.95420  0.18360  1.0000
  O   O63       1.0  0.94873  0.96260  0.29130  1.0000
  O   O64       1.0  0.53618  0.66440  0.95930  1.0000
  C   C221      1.0  0.89447  0.92510  0.21090  1.0000
  C   C222      1.0  0.93533  0.94970  0.22990  1.0000
  C   C223      1.0  0.54841  0.64350  0.02100  1.0000
  C   C224      1.0  0.87707  0.91840  0.14410  1.0000
  H   H162      1.0  0.89058  0.93585  0.10966  1.0000
  C   C225      1.0  0.58664  0.68980  0.05000  1.0000
  C   C226      1.0  0.75191  0.89270  0.19090  1.0000
  H   H163      1.0  0.75982  0.95373  0.22396  1.0000
  C   C227      1.0  0.66110  0.75300  0.09930  1.0000
  O   O65       1.0  0.68875  0.93190  0.20460  1.0000
  C   C228      1.0  0.81835  0.86300  0.17810  1.0000
  C   C229      1.0  0.87313  0.90300  0.26150  1.0000
  H   H164      1.0  0.88430  0.90872  0.30693  1.0000
  C   C230      1.0  0.77833  0.82930  0.15970  1.0000
  C   C231      1.0  0.83552  0.87250  0.24500  1.0000
  H   H165      1.0  0.82179  0.85844  0.27947  1.0000
  O   O66       1.0  0.79086  0.66580  0.08510  1.0000
  C   C232      1.0  0.60903  0.74050  0.00680  1.0000
  H   H166      1.0  0.59932  0.75306  0.96104  1.0000
  C   C233      1.0  0.70156  0.77660  0.12410  1.0000
  C   C234      1.0  0.83958  0.88590  0.12730  1.0000
  H   H167      1.0  0.82848  0.87927  0.08191  1.0000
  C   C235      1.0  0.60150  0.67480  0.11750  1.0000
  H   H168      1.0  0.58665  0.64314  0.14709  1.0000
  C   C236      1.0  0.71398  0.86550  0.17320  1.0000
  C   C237      1.0  0.76592  0.73950  0.11130  1.0000
  C   C238      1.0  0.64577  0.77210  0.03200  1.0000
  H   H169      1.0  0.66042  0.80689  0.00285  1.0000
  C   C239      1.0  0.72676  0.71360  0.09350  1.0000
  H   H170      1.0  0.71848  0.65270  0.06055  1.0000
  C   C240      1.0  0.63820  0.70600  0.14190  1.0000
  H   H171      1.0  0.64764  0.69530  0.18790  1.0000
  C   C241      1.0  0.77760  0.55310  0.04280  1.0000
  H   H172      1.0  0.75827  0.57844  0.00620  1.0000
  H   H173      1.0  0.79802  0.51713  0.02456  1.0000
  H   H174      1.0  0.76793  0.49081  0.07030  1.0000
  C   C242      1.0  0.70330  0.03770  0.24940  1.0000
  H   H175      1.0  0.71781  0.09308  0.22607  1.0000
  H   H176      1.0  0.68288  0.08429  0.26204  1.0000
  O   O67       1.0  0.03079  0.08490  0.05890  1.0000
  O   O68       1.0  0.45397  0.45420  0.18360  1.0000
  O   O69       1.0  0.44873  0.46260  0.29130  1.0000
  O   O70       1.0  0.03618  0.16440  0.95930  1.0000
  C   C243      1.0  0.39447  0.42510  0.21090  1.0000
  C   C244      1.0  0.43533  0.44970  0.22990  1.0000
  C   C245      1.0  0.04841  0.14350  0.02100  1.0000
  C   C246      1.0  0.37707  0.41840  0.14410  1.0000
  H   H177      1.0  0.39058  0.43585  0.10966  1.0000
  C   C247      1.0  0.08664  0.18980  0.05000  1.0000
  C   C248      1.0  0.25191  0.39270  0.19090  1.0000
  H   H178      1.0  0.25982  0.45373  0.22396  1.0000
  C   C249      1.0  0.16110  0.25300  0.09930  1.0000
  O   O71       1.0  0.18875  0.43190  0.20460  1.0000
  C   C250      1.0  0.31835  0.36300  0.17810  1.0000
  C   C251      1.0  0.37313  0.40300  0.26150  1.0000
  H   H179      1.0  0.38430  0.40872  0.30693  1.0000
  C   C252      1.0  0.27833  0.32930  0.15970  1.0000
  C   C253      1.0  0.33552  0.37250  0.24500  1.0000
  H   H180      1.0  0.32179  0.35844  0.27947  1.0000
  O   O72       1.0  0.29086  0.16580  0.08510  1.0000
  C   C254      1.0  0.10903  0.24050  0.00680  1.0000
  H   H181      1.0  0.09932  0.25306  0.96104  1.0000
  C   C255      1.0  0.20156  0.27660  0.12410  1.0000
  C   C256      1.0  0.33958  0.38590  0.12730  1.0000
  H   H182      1.0  0.32848  0.37927  0.08191  1.0000
  C   C257      1.0  0.10150  0.17480  0.11750  1.0000
  H   H183      1.0  0.08665  0.14314  0.14709  1.0000
  C   C258      1.0  0.21398  0.36550  0.17320  1.0000
  C   C259      1.0  0.26592  0.23950  0.11130  1.0000
  C   C260      1.0  0.14577  0.27210  0.03200  1.0000
  H   H184      1.0  0.16042  0.30689  0.00285  1.0000
  C   C261      1.0  0.22676  0.21360  0.09350  1.0000
  H   H185      1.0  0.21848  0.15270  0.06055  1.0000
  C   C262      1.0  0.13820  0.20600  0.14190  1.0000
  H   H186      1.0  0.14764  0.19530  0.18790  1.0000
  C   C263      1.0  0.27760  0.05310  0.04280  1.0000
  H   H187      1.0  0.25827  0.07844  0.00620  1.0000
  H   H188      1.0  0.29802  0.01713  0.02456  1.0000
  H   H189      1.0  0.26793  0.99081  0.07030  1.0000
  C   C264      1.0  0.20330  0.53770  0.24940  1.0000
  H   H190      1.0  0.21781  0.59308  0.22607  1.0000
  H   H191      1.0  0.18288  0.58429  0.26204  1.0000
  H   H192      1.0  0.21878  0.50477  0.28954  1.0000
  Dy  Dy1       1.0  0.50133  0.54476  0.62290  1.0000
  Dy  Dy2       1.0  0.00133  0.95524  0.12290  1.0000
  Dy  Dy3       1.0  0.49867  0.45524  0.37710  1.0000
  Dy  Dy4       1.0  0.00133  0.04476  0.62290  1.0000
  Dy  Dy5       1.0  0.99867  0.95524  0.37710  1.0000
  Dy  Dy6       1.0  0.49867  0.54476  0.87710  1.0000
  Dy  Dy7       1.0  0.50133  0.45524  0.12290  1.0000
  Dy  Dy8       1.0  0.99867  0.04476  0.87710  1.0000
