data_image0
_chemical_formula_structural       O6CHC4HC3HCO6CHC4HC3HCHCO6CHC4HC4HC3HCO6CHC4HC4HC3HCO7CHC4HC3HCO10CHC4HC3HCO7CHC4HC3HCCa12
_chemical_formula_sum              "O48 C72 H24 Ca12"
_cell_length_a       16.552
_cell_length_b       10.961
_cell_length_c       18.691
_cell_angle_alpha    90
_cell_angle_beta     111.514
_cell_angle_gamma    90

_space_group_name_H-M_alt    "P 1"
_space_group_IT_number       1

loop_
  _space_group_symop_operation_xyz
  'x, y, z'

loop_
  _atom_site_type_symbol
  _atom_site_label
  _atom_site_symmetry_multiplicity
  _atom_site_fract_x
  _atom_site_fract_y
  _atom_site_fract_z
  _atom_site_occupancy
  O   O1        1.0  0.00100  0.60540  0.83852  1.0000
  O   O2        1.0  0.00891  0.69990  0.94497  1.0000
  O   O3        1.0  0.64477  0.97910  0.82848  1.0000
  O   O4        1.0  0.76107  0.97750  0.93467  1.0000
  O   O5        1.0  0.70040  0.89580  0.58424  1.0000
  O   O6        1.0  0.80619  0.76580  0.59022  1.0000
  C   C1        1.0  0.86460  0.75750  0.74973  1.0000
  H   H1        1.0  0.89530  0.71510  0.72480  1.0000
  C   C2        1.0  0.89140  0.75240  0.82923  1.0000
  C   C3        1.0  0.77186  0.88250  0.82413  1.0000
  C   C4        1.0  0.97170  0.68070  0.87370  1.0000
  C   C5        1.0  0.84596  0.81590  0.86663  1.0000
  H   H2        1.0  0.86480  0.81400  0.92000  1.0000
  C   C6        1.0  0.72330  0.95030  0.86538  1.0000
  C   C7        1.0  0.76410  0.82900  0.62064  1.0000
  C   C8        1.0  0.74520  0.88720  0.74475  1.0000
  H   H3        1.0  0.69590  0.93150  0.71640  1.0000
  C   C9        1.0  0.79190  0.82590  0.70707  1.0000
  O   O7        1.0  0.50100  0.10540  0.83852  1.0000
  O   O8        1.0  0.50891  0.19990  0.94497  1.0000
  O   O9        1.0  0.14477  0.47910  0.82848  1.0000
  O   O10       1.0  0.26107  0.47750  0.93467  1.0000
  O   O11       1.0  0.20040  0.39580  0.58424  1.0000
  O   O12       1.0  0.30619  0.26580  0.59022  1.0000
  C   C10       1.0  0.36460  0.25750  0.74973  1.0000
  H   H4        1.0  0.39530  0.21510  0.72480  1.0000
  C   C11       1.0  0.39140  0.25240  0.82923  1.0000
  C   C12       1.0  0.27186  0.38250  0.82413  1.0000
  C   C13       1.0  0.47170  0.18070  0.87370  1.0000
  C   C14       1.0  0.34596  0.31590  0.86663  1.0000
  H   H5        1.0  0.36480  0.31400  0.92000  1.0000
  C   C15       1.0  0.22330  0.45030  0.86538  1.0000
  C   C16       1.0  0.26410  0.32900  0.62064  1.0000
  C   C17       1.0  0.24520  0.38720  0.74475  1.0000
  H   H6        1.0  0.19590  0.43150  0.71640  1.0000
  C   C18       1.0  0.29190  0.32590  0.70707  1.0000
  H   H7        1.0  0.30410  0.93150  0.78360  1.0000
  C   C19       1.0  0.20810  0.82590  0.79293  1.0000
  O   O13       1.0  0.99900  0.60540  0.66148  1.0000
  O   O14       1.0  0.99109  0.69990  0.55503  1.0000
  O   O15       1.0  0.35523  0.97910  0.67152  1.0000
  O   O16       1.0  0.23893  0.97750  0.56533  1.0000
  O   O17       1.0  0.29960  0.89580  0.91576  1.0000
  O   O18       1.0  0.19381  0.76580  0.90978  1.0000
  C   C20       1.0  0.13540  0.75750  0.75027  1.0000
  H   H8        1.0  0.10470  0.71510  0.77520  1.0000
  C   C21       1.0  0.10860  0.75240  0.67077  1.0000
  C   C22       1.0  0.22814  0.88250  0.67587  1.0000
  C   C23       1.0  0.02830  0.68070  0.62630  1.0000
  C   C24       1.0  0.15404  0.81590  0.63337  1.0000
  H   H9        1.0  0.13520  0.81400  0.58000  1.0000
  C   C25       1.0  0.27670  0.95030  0.63462  1.0000
  C   C26       1.0  0.23590  0.82900  0.87936  1.0000
  C   C27       1.0  0.25480  0.88720  0.75525  1.0000
  C   C28       1.0  0.65404  0.31590  0.63337  1.0000
  H   H10       1.0  0.63520  0.31400  0.58000  1.0000
  C   C29       1.0  0.77670  0.45030  0.63462  1.0000
  C   C30       1.0  0.73590  0.32900  0.87936  1.0000
  C   C31       1.0  0.75480  0.38720  0.75525  1.0000
  H   H11       1.0  0.80410  0.43150  0.78360  1.0000
  C   C32       1.0  0.70810  0.32590  0.79293  1.0000
  O   O19       1.0  0.49900  0.10540  0.66148  1.0000
  O   O20       1.0  0.49109  0.19990  0.55503  1.0000
  O   O21       1.0  0.85523  0.47910  0.67152  1.0000
  O   O22       1.0  0.73893  0.47750  0.56533  1.0000
  O   O23       1.0  0.79960  0.39580  0.91576  1.0000
  O   O24       1.0  0.69381  0.26580  0.90978  1.0000
  C   C33       1.0  0.63540  0.25750  0.75027  1.0000
  H   H12       1.0  0.60470  0.21510  0.77520  1.0000
  C   C34       1.0  0.60860  0.25240  0.67077  1.0000
  C   C35       1.0  0.72814  0.38250  0.67587  1.0000
  C   C36       1.0  0.52830  0.18070  0.62630  1.0000
  C   C37       1.0  0.13540  0.24250  0.25027  1.0000
  H   H13       1.0  0.10470  0.28490  0.27520  1.0000
  C   C38       1.0  0.10860  0.24760  0.17077  1.0000
  C   C39       1.0  0.22814  0.11750  0.17587  1.0000
  C   C40       1.0  0.02830  0.31930  0.12630  1.0000
  C   C41       1.0  0.15404  0.18410  0.13337  1.0000
  H   H14       1.0  0.13520  0.18600  0.08000  1.0000
  C   C42       1.0  0.27670  0.04970  0.13462  1.0000
  C   C43       1.0  0.23590  0.17100  0.37936  1.0000
  C   C44       1.0  0.25480  0.11280  0.25525  1.0000
  H   H15       1.0  0.30410  0.06850  0.28360  1.0000
  C   C45       1.0  0.20810  0.17410  0.29293  1.0000
  O   O25       1.0  0.99900  0.39460  0.16148  1.0000
  O   O26       1.0  0.99109  0.30010  0.05503  1.0000
  O   O27       1.0  0.35523  0.02090  0.17152  1.0000
  O   O28       1.0  0.23893  0.02250  0.06533  1.0000
  O   O29       1.0  0.29960  0.10420  0.41576  1.0000
  O   O30       1.0  0.19381  0.23420  0.40978  1.0000
  O   O31       1.0  0.69381  0.73420  0.40978  1.0000
  C   C46       1.0  0.63540  0.74250  0.25027  1.0000
  H   H16       1.0  0.60470  0.78490  0.27520  1.0000
  C   C47       1.0  0.60860  0.74760  0.17077  1.0000
  C   C48       1.0  0.72814  0.61750  0.17587  1.0000
  C   C49       1.0  0.52830  0.81930  0.12630  1.0000
  C   C50       1.0  0.65404  0.68410  0.13337  1.0000
  H   H17       1.0  0.63520  0.68600  0.08000  1.0000
  C   C51       1.0  0.77670  0.54970  0.13462  1.0000
  C   C52       1.0  0.73590  0.67100  0.37936  1.0000
  C   C53       1.0  0.75480  0.61280  0.25525  1.0000
  H   H18       1.0  0.80410  0.56850  0.28360  1.0000
  C   C54       1.0  0.70810  0.67410  0.29293  1.0000
  O   O32       1.0  0.49900  0.89460  0.16148  1.0000
  O   O33       1.0  0.49109  0.80010  0.05503  1.0000
  O   O34       1.0  0.85523  0.52090  0.17152  1.0000
  O   O35       1.0  0.73893  0.52250  0.06533  1.0000
  O   O36       1.0  0.79960  0.60420  0.41576  1.0000
  O   O37       1.0  0.00891  0.30010  0.44497  1.0000
  O   O38       1.0  0.64477  0.02090  0.32848  1.0000
  O   O39       1.0  0.76107  0.02250  0.43467  1.0000
  O   O40       1.0  0.70040  0.10420  0.08424  1.0000
  O   O41       1.0  0.80619  0.23420  0.09022  1.0000
  C   C55       1.0  0.86460  0.24250  0.24973  1.0000
  H   H19       1.0  0.89530  0.28490  0.22480  1.0000
  C   C56       1.0  0.89140  0.24760  0.32923  1.0000
  C   C57       1.0  0.77186  0.11750  0.32413  1.0000
  C   C58       1.0  0.97170  0.31930  0.37370  1.0000
  C   C59       1.0  0.84596  0.18410  0.36663  1.0000
  H   H20       1.0  0.86480  0.18600  0.42000  1.0000
  C   C60       1.0  0.72330  0.04970  0.36538  1.0000
  C   C61       1.0  0.76410  0.17100  0.12064  1.0000
  C   C62       1.0  0.74520  0.11280  0.24475  1.0000
  H   H21       1.0  0.69590  0.06850  0.21640  1.0000
  C   C63       1.0  0.79190  0.17410  0.20707  1.0000
  O   O42       1.0  0.00100  0.39460  0.33852  1.0000
  O   O43       1.0  0.50100  0.89460  0.33852  1.0000
  O   O44       1.0  0.50891  0.80010  0.44497  1.0000
  O   O45       1.0  0.14477  0.52090  0.32848  1.0000
  O   O46       1.0  0.26107  0.52250  0.43467  1.0000
  O   O47       1.0  0.20040  0.60420  0.08424  1.0000
  O   O48       1.0  0.30619  0.73420  0.09022  1.0000
  C   C64       1.0  0.36460  0.74250  0.24973  1.0000
  H   H22       1.0  0.39530  0.78490  0.22480  1.0000
  C   C65       1.0  0.39140  0.74760  0.32923  1.0000
  C   C66       1.0  0.27186  0.61750  0.32413  1.0000
  C   C67       1.0  0.47170  0.81930  0.37370  1.0000
  C   C68       1.0  0.34596  0.68410  0.36663  1.0000
  H   H23       1.0  0.36480  0.68600  0.42000  1.0000
  C   C69       1.0  0.22330  0.54970  0.36538  1.0000
  C   C70       1.0  0.26410  0.67100  0.12064  1.0000
  C   C71       1.0  0.24520  0.61280  0.24475  1.0000
  H   H24       1.0  0.19590  0.56850  0.21640  1.0000
  C   C72       1.0  0.29190  0.67410  0.20707  1.0000
  Ca  Ca1       1.0  0.14554  0.59582  0.95128  1.0000
  Ca  Ca2       1.0  0.64554  0.90418  0.45128  1.0000
  Ca  Ca3       1.0  0.64554  0.09582  0.95128  1.0000
  Ca  Ca4       1.0  0.00000  0.45626  0.75000  1.0000
  Ca  Ca5       1.0  0.50000  0.95626  0.75000  1.0000
  Ca  Ca6       1.0  0.85446  0.59582  0.54872  1.0000
  Ca  Ca7       1.0  0.00000  0.54374  0.25000  1.0000
  Ca  Ca8       1.0  0.50000  0.04374  0.25000  1.0000
  Ca  Ca9       1.0  0.35446  0.09582  0.54872  1.0000
  Ca  Ca10      1.0  0.85446  0.40418  0.04872  1.0000
  Ca  Ca11      1.0  0.35446  0.90418  0.04872  1.0000
  Ca  Ca12      1.0  0.14554  0.40418  0.45128  1.0000
