data_image0
_chemical_formula_structural       O2C3HC2HO2C3HO2C3HO2C3HCHC2HCO2C3HO2C3HO2C3HO2C3HCHCHCO2C3HO2C3HO2C3HO2C3HCHC2O2C3HO2C3HO2C3HO2C3HCHC2HCNi8O8
_chemical_formula_sum              "O40 C64 H24 Ni8"
_cell_length_a       15.178
_cell_length_b       15.178
_cell_length_c       12.0813
_cell_angle_alpha    90
_cell_angle_beta     90
_cell_angle_gamma    90

_space_group_name_H-M_alt    "P 1"
_space_group_IT_number       1

loop_
  _space_group_symop_operation_xyz
  'x, y, z'

loop_
  _atom_site_type_symbol
  _atom_site_label
  _atom_site_symmetry_multiplicity
  _atom_site_fract_x
  _atom_site_fract_y
  _atom_site_fract_z
  _atom_site_occupancy
  O   O1        1.0  0.38270  0.37670  0.88820  1.0000
  O   O2        1.0  0.28690  0.40450  0.74920  1.0000
  C   C1        1.0  0.35990  0.41000  0.79680  1.0000
  C   C2        1.0  0.43150  0.46020  0.73600  1.0000
  C   C3        1.0  0.43040  0.46290  0.62310  1.0000
  H   H1        1.0  0.38220  0.43950  0.58570  1.0000
  C   C4        1.0  0.50000  0.50000  0.20550  1.0000
  C   C5        1.0  0.50000  0.50000  0.43860  1.0000
  H   H2        1.0  0.50000  0.50000  0.12850  1.0000
  O   O3        1.0  0.61730  0.62330  0.88820  1.0000
  O   O4        1.0  0.71310  0.59550  0.74920  1.0000
  C   C6        1.0  0.64010  0.59000  0.79680  1.0000
  C   C7        1.0  0.56850  0.53980  0.73600  1.0000
  C   C8        1.0  0.56960  0.53710  0.62310  1.0000
  H   H3        1.0  0.61780  0.56050  0.58570  1.0000
  O   O5        1.0  0.37670  0.38270  0.11180  1.0000
  O   O6        1.0  0.40450  0.28690  0.25080  1.0000
  C   C9        1.0  0.41000  0.35990  0.20320  1.0000
  C   C10       1.0  0.46020  0.43150  0.26400  1.0000
  C   C11       1.0  0.46290  0.43040  0.37690  1.0000
  H   H4        1.0  0.43950  0.38220  0.41430  1.0000
  O   O7        1.0  0.62330  0.61730  0.11180  1.0000
  O   O8        1.0  0.59550  0.71310  0.25080  1.0000
  C   C12       1.0  0.59000  0.64010  0.20320  1.0000
  C   C13       1.0  0.53980  0.56850  0.26400  1.0000
  C   C14       1.0  0.53710  0.56960  0.37690  1.0000
  H   H5        1.0  0.56050  0.61780  0.41430  1.0000
  C   C15       1.0  0.50000  0.50000  0.79450  1.0000
  H   H6        1.0  0.50000  0.50000  0.87150  1.0000
  C   C16       1.0  0.50000  0.50000  0.56140  1.0000
  C   C17       1.0  0.00000  0.00000  0.70550  1.0000
  H   H7        1.0  0.00000  0.00000  0.62850  1.0000
  C   C18       1.0  0.00000  0.00000  0.93860  1.0000
  O   O9        1.0  0.88270  0.87670  0.38820  1.0000
  O   O10       1.0  0.78690  0.90450  0.24920  1.0000
  C   C19       1.0  0.85990  0.91000  0.29680  1.0000
  C   C20       1.0  0.93150  0.96020  0.23600  1.0000
  C   C21       1.0  0.93040  0.96290  0.12310  1.0000
  H   H8        1.0  0.88220  0.93950  0.08570  1.0000
  O   O11       1.0  0.11730  0.12330  0.38820  1.0000
  O   O12       1.0  0.21310  0.09550  0.24920  1.0000
  C   C22       1.0  0.14010  0.09000  0.29680  1.0000
  C   C23       1.0  0.06850  0.03980  0.23600  1.0000
  C   C24       1.0  0.06960  0.03710  0.12310  1.0000
  H   H9        1.0  0.11780  0.06050  0.08570  1.0000
  O   O13       1.0  0.87670  0.88270  0.61180  1.0000
  O   O14       1.0  0.90450  0.78690  0.75080  1.0000
  C   C25       1.0  0.91000  0.85990  0.70320  1.0000
  C   C26       1.0  0.96020  0.93150  0.76400  1.0000
  C   C27       1.0  0.96290  0.93040  0.87690  1.0000
  H   H10       1.0  0.93950  0.88220  0.91430  1.0000
  O   O15       1.0  0.12330  0.11730  0.61180  1.0000
  O   O16       1.0  0.09550  0.21310  0.75080  1.0000
  C   C28       1.0  0.09000  0.14010  0.70320  1.0000
  C   C29       1.0  0.03980  0.06850  0.76400  1.0000
  C   C30       1.0  0.03710  0.06960  0.87690  1.0000
  H   H11       1.0  0.06050  0.11780  0.91430  1.0000
  C   C31       1.0  0.00000  0.00000  0.29450  1.0000
  H   H12       1.0  0.00000  0.00000  0.37150  1.0000
  C   C32       1.0  0.00000  0.00000  0.06140  1.0000
  H   H13       1.0  0.50000  0.00000  0.37850  1.0000
  C   C33       1.0  0.50000  0.00000  0.68860  1.0000
  O   O17       1.0  0.62330  0.88270  0.13820  1.0000
  O   O18       1.0  0.59550  0.78690  0.99920  1.0000
  C   C34       1.0  0.59000  0.85990  0.04680  1.0000
  C   C35       1.0  0.53980  0.93150  0.98600  1.0000
  C   C36       1.0  0.53710  0.93040  0.87310  1.0000
  H   H14       1.0  0.56050  0.88220  0.83570  1.0000
  O   O19       1.0  0.37670  0.11730  0.13820  1.0000
  O   O20       1.0  0.40450  0.21310  0.99920  1.0000
  C   C37       1.0  0.41000  0.14010  0.04680  1.0000
  C   C38       1.0  0.46020  0.06850  0.98600  1.0000
  C   C39       1.0  0.46290  0.06960  0.87310  1.0000
  H   H15       1.0  0.43950  0.11780  0.83570  1.0000
  O   O21       1.0  0.61730  0.87670  0.36180  1.0000
  O   O22       1.0  0.71310  0.90450  0.50080  1.0000
  C   C40       1.0  0.64010  0.91000  0.45320  1.0000
  C   C41       1.0  0.56850  0.96020  0.51400  1.0000
  C   C42       1.0  0.56960  0.96290  0.62690  1.0000
  H   H16       1.0  0.61780  0.93950  0.66430  1.0000
  O   O23       1.0  0.38270  0.12330  0.36180  1.0000
  O   O24       1.0  0.28690  0.09550  0.50080  1.0000
  C   C43       1.0  0.35990  0.09000  0.45320  1.0000
  C   C44       1.0  0.43150  0.03980  0.51400  1.0000
  C   C45       1.0  0.43040  0.03710  0.62690  1.0000
  H   H17       1.0  0.38220  0.06050  0.66430  1.0000
  C   C46       1.0  0.50000  0.00000  0.04450  1.0000
  H   H18       1.0  0.50000  0.00000  0.12150  1.0000
  C   C47       1.0  0.50000  0.00000  0.81140  1.0000
  C   C48       1.0  0.50000  0.00000  0.45550  1.0000
  O   O25       1.0  0.12330  0.38270  0.63820  1.0000
  O   O26       1.0  0.09550  0.28690  0.49920  1.0000
  C   C49       1.0  0.09000  0.35990  0.54680  1.0000
  C   C50       1.0  0.03980  0.43150  0.48600  1.0000
  C   C51       1.0  0.03710  0.43040  0.37310  1.0000
  H   H19       1.0  0.06050  0.38220  0.33570  1.0000
  O   O27       1.0  0.87670  0.61730  0.63820  1.0000
  O   O28       1.0  0.90450  0.71310  0.49920  1.0000
  C   C52       1.0  0.91000  0.64010  0.54680  1.0000
  C   C53       1.0  0.96020  0.56850  0.48600  1.0000
  C   C54       1.0  0.96290  0.56960  0.37310  1.0000
  H   H20       1.0  0.93950  0.61780  0.33570  1.0000
  O   O29       1.0  0.11730  0.37670  0.86180  1.0000
  O   O30       1.0  0.21310  0.40450  0.00080  1.0000
  C   C55       1.0  0.14010  0.41000  0.95320  1.0000
  C   C56       1.0  0.06850  0.46020  0.01400  1.0000
  C   C57       1.0  0.06960  0.46290  0.12690  1.0000
  H   H21       1.0  0.11780  0.43950  0.16430  1.0000
  O   O31       1.0  0.88270  0.62330  0.86180  1.0000
  O   O32       1.0  0.78690  0.59550  0.00080  1.0000
  C   C58       1.0  0.85990  0.59000  0.95320  1.0000
  C   C59       1.0  0.93150  0.53980  0.01400  1.0000
  C   C60       1.0  0.93040  0.53710  0.12690  1.0000
  H   H22       1.0  0.88220  0.56050  0.16430  1.0000
  C   C61       1.0  0.00000  0.50000  0.54450  1.0000
  H   H23       1.0  0.00000  0.50000  0.62150  1.0000
  C   C62       1.0  0.00000  0.50000  0.31140  1.0000
  C   C63       1.0  0.00000  0.50000  0.95550  1.0000
  H   H24       1.0  0.00000  0.50000  0.87850  1.0000
  C   C64       1.0  0.00000  0.50000  0.18860  1.0000
  Ni  Ni1       1.0  0.18964  0.31036  0.75000  1.0000
  Ni  Ni2       1.0  0.31036  0.18964  0.25000  1.0000
  Ni  Ni3       1.0  0.68964  0.68964  0.00000  1.0000
  Ni  Ni4       1.0  0.81036  0.81036  0.50000  1.0000
  Ni  Ni5       1.0  0.31036  0.31036  0.00000  1.0000
  Ni  Ni6       1.0  0.18964  0.18964  0.50000  1.0000
  Ni  Ni7       1.0  0.81036  0.68964  0.75000  1.0000
  Ni  Ni8       1.0  0.68964  0.81036  0.25000  1.0000
  O   O33       1.0  0.25000  0.23640  0.87500  1.0000
  O   O34       1.0  0.75000  0.73640  0.37500  1.0000
  O   O35       1.0  0.25000  0.26360  0.37500  1.0000
  O   O36       1.0  0.75000  0.76360  0.87500  1.0000
  O   O37       1.0  0.76360  0.75000  0.12500  1.0000
  O   O38       1.0  0.26360  0.25000  0.62500  1.0000
  O   O39       1.0  0.73640  0.75000  0.62500  1.0000
  O   O40       1.0  0.23640  0.25000  0.12500  1.0000
