data_image0
_chemical_formula_structural       O11S2C2HC3HCHC3HC2HCHC2O11S2C2HC3HCHC3HC2HCHC2O11S2C2HC3HCHC3HC2HCHC2O5S2C2HC3HCHC3HC2HCHC2O17S2C2HC3HCHC3HC2HCHC2O11S2C2HC3HCHC3HC2HCHC2SC2HC3HCHC3HC2HCHC2O11SO11S2C2HC3HCHC3HC2HCHC2OHOHOHOHOHOHOHOHCu16
_chemical_formula_sum              "O96 S16 C112 H56 Cu16"
_cell_length_a       24.1267
_cell_length_b       24.1267
_cell_length_c       11.3077
_cell_angle_alpha    90
_cell_angle_beta     90
_cell_angle_gamma    90

_space_group_name_H-M_alt    "P 1"
_space_group_IT_number       1

loop_
  _space_group_symop_operation_xyz
  'x, y, z'

loop_
  _atom_site_type_symbol
  _atom_site_label
  _atom_site_symmetry_multiplicity
  _atom_site_fract_x
  _atom_site_fract_y
  _atom_site_fract_z
  _atom_site_occupancy
  O   O1        1.0  0.55293  0.56115  0.28400  1.0000
  O   O2        1.0  0.46950  0.52079  0.26780  1.0000
  O   O3        1.0  0.48147  0.88395  0.87690  1.0000
  O   O4        1.0  0.53538  0.84798  0.01740  1.0000
  O   O5        1.0  0.33321  0.52630  0.57890  1.0000
  O   O6        1.0  0.36639  0.54173  0.77660  1.0000
  O   O7        1.0  0.33050  0.61720  0.66600  1.0000
  O   O8        1.0  0.46971  0.60707  0.04140  1.0000
  O   O9        1.0  0.56161  0.64842  0.06420  1.0000
  O   O10       1.0  0.54199  0.59180  0.89500  1.0000
  O   O11       1.0  0.44732  0.62987  0.77380  1.0000
  S   S1        1.0  0.35846  0.56456  0.66016  1.0000
  S   S2        1.0  0.51978  0.62974  0.98420  1.0000
  C   C1        1.0  0.49113  0.56937  0.44390  1.0000
  C   C2        1.0  0.44013  0.55782  0.49230  1.0000
  H   H1        1.0  0.41530  0.53560  0.45090  1.0000
  C   C3        1.0  0.42530  0.57869  0.60160  1.0000
  C   C4        1.0  0.46270  0.61095  0.66150  1.0000
  C   C5        1.0  0.51340  0.62120  0.61650  1.0000
  H   H2        1.0  0.53860  0.64220  0.65990  1.0000
  C   C6        1.0  0.52850  0.60100  0.50640  1.0000
  H   H3        1.0  0.56340  0.60870  0.47520  1.0000
  C   C7        1.0  0.46580  0.68249  0.80590  1.0000
  C   C8        1.0  0.49618  0.68848  0.90670  1.0000
  C   C9        1.0  0.50922  0.74128  0.94650  1.0000
  H   H4        1.0  0.52940  0.74560  0.01600  1.0000
  C   C10       1.0  0.49230  0.78792  0.88340  1.0000
  C   C11       1.0  0.46270  0.78017  0.78020  1.0000
  H   H5        1.0  0.45140  0.81080  0.73640  1.0000
  C   C12       1.0  0.44980  0.72790  0.74150  1.0000
  H   H6        1.0  0.43010  0.72330  0.67150  1.0000
  C   C13       1.0  0.50639  0.54816  0.32190  1.0000
  C   C14       1.0  0.50408  0.84490  0.93030  1.0000
  O   O12       1.0  0.94707  0.93885  0.28400  1.0000
  O   O13       1.0  0.03050  0.97921  0.26780  1.0000
  O   O14       1.0  0.01853  0.61605  0.87690  1.0000
  O   O15       1.0  0.96462  0.65202  0.01740  1.0000
  O   O16       1.0  0.16679  0.97370  0.57890  1.0000
  O   O17       1.0  0.13361  0.95827  0.77660  1.0000
  O   O18       1.0  0.16950  0.88280  0.66600  1.0000
  O   O19       1.0  0.03029  0.89293  0.04140  1.0000
  O   O20       1.0  0.93839  0.85158  0.06420  1.0000
  O   O21       1.0  0.95801  0.90820  0.89500  1.0000
  O   O22       1.0  0.05268  0.87013  0.77380  1.0000
  S   S3        1.0  0.14154  0.93544  0.66016  1.0000
  S   S4        1.0  0.98022  0.87026  0.98420  1.0000
  C   C15       1.0  0.00887  0.93063  0.44390  1.0000
  C   C16       1.0  0.05987  0.94218  0.49230  1.0000
  H   H7        1.0  0.08470  0.96440  0.45090  1.0000
  C   C17       1.0  0.07470  0.92131  0.60160  1.0000
  C   C18       1.0  0.03730  0.88905  0.66150  1.0000
  C   C19       1.0  0.98660  0.87880  0.61650  1.0000
  H   H8        1.0  0.96140  0.85780  0.65990  1.0000
  C   C20       1.0  0.97150  0.89900  0.50640  1.0000
  H   H9        1.0  0.93660  0.89130  0.47520  1.0000
  C   C21       1.0  0.03420  0.81751  0.80590  1.0000
  C   C22       1.0  0.00382  0.81152  0.90670  1.0000
  C   C23       1.0  0.99078  0.75872  0.94650  1.0000
  H   H10       1.0  0.97060  0.75440  0.01600  1.0000
  C   C24       1.0  0.00770  0.71208  0.88340  1.0000
  C   C25       1.0  0.03730  0.71983  0.78020  1.0000
  H   H11       1.0  0.04860  0.68920  0.73640  1.0000
  C   C26       1.0  0.05020  0.77210  0.74150  1.0000
  H   H12       1.0  0.06990  0.77670  0.67150  1.0000
  C   C27       1.0  0.99361  0.95184  0.32190  1.0000
  C   C28       1.0  0.99592  0.65510  0.93030  1.0000
  O   O23       1.0  0.93885  0.55293  0.28400  1.0000
  O   O24       1.0  0.97921  0.46950  0.26780  1.0000
  O   O25       1.0  0.61605  0.48147  0.87690  1.0000
  O   O26       1.0  0.65202  0.53538  0.01740  1.0000
  O   O27       1.0  0.97370  0.33321  0.57890  1.0000
  O   O28       1.0  0.95827  0.36639  0.77660  1.0000
  O   O29       1.0  0.88280  0.33050  0.66600  1.0000
  O   O30       1.0  0.89293  0.46971  0.04140  1.0000
  O   O31       1.0  0.85158  0.56161  0.06420  1.0000
  O   O32       1.0  0.90820  0.54199  0.89500  1.0000
  O   O33       1.0  0.87013  0.44732  0.77380  1.0000
  S   S5        1.0  0.93544  0.35846  0.66016  1.0000
  S   S6        1.0  0.87026  0.51978  0.98420  1.0000
  C   C29       1.0  0.93063  0.49113  0.44390  1.0000
  C   C30       1.0  0.94218  0.44013  0.49230  1.0000
  H   H13       1.0  0.96440  0.41530  0.45090  1.0000
  C   C31       1.0  0.92131  0.42530  0.60160  1.0000
  C   C32       1.0  0.88905  0.46270  0.66150  1.0000
  C   C33       1.0  0.87880  0.51340  0.61650  1.0000
  H   H14       1.0  0.85780  0.53860  0.65990  1.0000
  C   C34       1.0  0.89900  0.52850  0.50640  1.0000
  H   H15       1.0  0.89130  0.56340  0.47520  1.0000
  C   C35       1.0  0.81751  0.46580  0.80590  1.0000
  C   C36       1.0  0.81152  0.49618  0.90670  1.0000
  C   C37       1.0  0.75872  0.50922  0.94650  1.0000
  H   H16       1.0  0.75440  0.52940  0.01600  1.0000
  C   C38       1.0  0.71208  0.49230  0.88340  1.0000
  C   C39       1.0  0.71983  0.46270  0.78020  1.0000
  H   H17       1.0  0.68920  0.45140  0.73640  1.0000
  C   C40       1.0  0.77210  0.44980  0.74150  1.0000
  H   H18       1.0  0.77670  0.43010  0.67150  1.0000
  C   C41       1.0  0.95184  0.50639  0.32190  1.0000
  C   C42       1.0  0.65510  0.50408  0.93030  1.0000
  O   O34       1.0  0.61720  0.16950  0.66600  1.0000
  O   O35       1.0  0.60707  0.03029  0.04140  1.0000
  O   O36       1.0  0.64842  0.93839  0.06420  1.0000
  O   O37       1.0  0.59180  0.95801  0.89500  1.0000
  O   O38       1.0  0.62987  0.05268  0.77380  1.0000
  S   S7        1.0  0.56456  0.14154  0.66016  1.0000
  S   S8        1.0  0.62974  0.98022  0.98420  1.0000
  C   C43       1.0  0.56937  0.00887  0.44390  1.0000
  C   C44       1.0  0.55782  0.05987  0.49230  1.0000
  H   H19       1.0  0.53560  0.08470  0.45090  1.0000
  C   C45       1.0  0.57869  0.07470  0.60160  1.0000
  C   C46       1.0  0.61095  0.03730  0.66150  1.0000
  C   C47       1.0  0.62120  0.98660  0.61650  1.0000
  H   H20       1.0  0.64220  0.96140  0.65990  1.0000
  C   C48       1.0  0.60100  0.97150  0.50640  1.0000
  H   H21       1.0  0.60870  0.93660  0.47520  1.0000
  C   C49       1.0  0.68249  0.03420  0.80590  1.0000
  C   C50       1.0  0.68848  0.00382  0.90670  1.0000
  C   C51       1.0  0.74128  0.99078  0.94650  1.0000
  H   H22       1.0  0.74560  0.97060  0.01600  1.0000
  C   C52       1.0  0.78792  0.00770  0.88340  1.0000
  C   C53       1.0  0.78017  0.03730  0.78020  1.0000
  H   H23       1.0  0.81080  0.04860  0.73640  1.0000
  C   C54       1.0  0.72790  0.05020  0.74150  1.0000
  H   H24       1.0  0.72330  0.06990  0.67150  1.0000
  C   C55       1.0  0.54816  0.99361  0.32190  1.0000
  C   C56       1.0  0.84490  0.99592  0.93030  1.0000
  O   O39       1.0  0.56115  0.94707  0.28400  1.0000
  O   O40       1.0  0.52079  0.03050  0.26780  1.0000
  O   O41       1.0  0.88395  0.01853  0.87690  1.0000
  O   O42       1.0  0.84798  0.96462  0.01740  1.0000
  O   O43       1.0  0.52630  0.16679  0.57890  1.0000
  O   O44       1.0  0.54173  0.13361  0.77660  1.0000
  O   O45       1.0  0.44707  0.43885  0.71600  1.0000
  O   O46       1.0  0.53050  0.47921  0.73220  1.0000
  O   O47       1.0  0.51853  0.11605  0.12310  1.0000
  O   O48       1.0  0.46462  0.15202  0.98260  1.0000
  O   O49       1.0  0.66679  0.47370  0.42110  1.0000
  O   O50       1.0  0.63361  0.45827  0.22340  1.0000
  O   O51       1.0  0.66950  0.38280  0.33400  1.0000
  O   O52       1.0  0.53029  0.39293  0.95860  1.0000
  O   O53       1.0  0.43839  0.35158  0.93580  1.0000
  O   O54       1.0  0.45801  0.40820  0.10500  1.0000
  O   O55       1.0  0.55268  0.37013  0.22620  1.0000
  S   S9        1.0  0.64154  0.43544  0.33984  1.0000
  S   S10       1.0  0.48022  0.37026  0.01580  1.0000
  C   C57       1.0  0.50887  0.43063  0.55610  1.0000
  C   C58       1.0  0.55987  0.44218  0.50770  1.0000
  H   H25       1.0  0.58470  0.46440  0.54910  1.0000
  C   C59       1.0  0.57470  0.42131  0.39840  1.0000
  C   C60       1.0  0.53730  0.38905  0.33850  1.0000
  C   C61       1.0  0.48660  0.37880  0.38350  1.0000
  H   H26       1.0  0.46140  0.35780  0.34010  1.0000
  C   C62       1.0  0.47150  0.39900  0.49360  1.0000
  H   H27       1.0  0.43660  0.39130  0.52480  1.0000
  C   C63       1.0  0.53420  0.31751  0.19410  1.0000
  C   C64       1.0  0.50382  0.31152  0.09330  1.0000
  C   C65       1.0  0.49078  0.25872  0.05350  1.0000
  H   H28       1.0  0.47060  0.25440  0.98400  1.0000
  C   C66       1.0  0.50770  0.21208  0.11660  1.0000
  C   C67       1.0  0.53730  0.21983  0.21980  1.0000
  H   H29       1.0  0.54860  0.18920  0.26360  1.0000
  C   C68       1.0  0.55020  0.27210  0.25850  1.0000
  H   H30       1.0  0.56990  0.27670  0.32850  1.0000
  C   C69       1.0  0.49361  0.45184  0.67810  1.0000
  C   C70       1.0  0.49592  0.15510  0.06970  1.0000
  O   O56       1.0  0.05293  0.06115  0.71600  1.0000
  O   O57       1.0  0.96950  0.02079  0.73220  1.0000
  O   O58       1.0  0.98147  0.38395  0.12310  1.0000
  O   O59       1.0  0.03538  0.34798  0.98260  1.0000
  O   O60       1.0  0.83321  0.02630  0.42110  1.0000
  O   O61       1.0  0.86639  0.04173  0.22340  1.0000
  O   O62       1.0  0.83050  0.11720  0.33400  1.0000
  O   O63       1.0  0.96971  0.10707  0.95860  1.0000
  O   O64       1.0  0.06161  0.14842  0.93580  1.0000
  O   O65       1.0  0.04199  0.09180  0.10500  1.0000
  O   O66       1.0  0.94732  0.12987  0.22620  1.0000
  S   S11       1.0  0.85846  0.06456  0.33984  1.0000
  S   S12       1.0  0.01978  0.12974  0.01580  1.0000
  C   C71       1.0  0.99113  0.06937  0.55610  1.0000
  C   C72       1.0  0.94013  0.05782  0.50770  1.0000
  H   H31       1.0  0.91530  0.03560  0.54910  1.0000
  C   C73       1.0  0.92530  0.07869  0.39840  1.0000
  C   C74       1.0  0.96270  0.11095  0.33850  1.0000
  C   C75       1.0  0.01340  0.12120  0.38350  1.0000
  H   H32       1.0  0.03860  0.14220  0.34010  1.0000
  C   C76       1.0  0.02850  0.10100  0.49360  1.0000
  H   H33       1.0  0.06340  0.10870  0.52480  1.0000
  C   C77       1.0  0.96580  0.18249  0.19410  1.0000
  C   C78       1.0  0.99618  0.18848  0.09330  1.0000
  C   C79       1.0  0.00922  0.24128  0.05350  1.0000
  H   H34       1.0  0.02940  0.24560  0.98400  1.0000
  C   C80       1.0  0.99230  0.28792  0.11660  1.0000
  C   C81       1.0  0.96270  0.28017  0.21980  1.0000
  H   H35       1.0  0.95140  0.31080  0.26360  1.0000
  C   C82       1.0  0.94980  0.22790  0.25850  1.0000
  H   H36       1.0  0.93010  0.22330  0.32850  1.0000
  C   C83       1.0  0.00639  0.04816  0.67810  1.0000
  C   C84       1.0  0.00408  0.34490  0.06970  1.0000
  S   S13       1.0  0.12974  0.48022  0.01580  1.0000
  C   C85       1.0  0.06937  0.50887  0.55610  1.0000
  C   C86       1.0  0.05782  0.55987  0.50770  1.0000
  H   H37       1.0  0.03560  0.58470  0.54910  1.0000
  C   C87       1.0  0.07869  0.57470  0.39840  1.0000
  C   C88       1.0  0.11095  0.53730  0.33850  1.0000
  C   C89       1.0  0.12120  0.48660  0.38350  1.0000
  H   H38       1.0  0.14220  0.46140  0.34010  1.0000
  C   C90       1.0  0.10100  0.47150  0.49360  1.0000
  H   H39       1.0  0.10870  0.43660  0.52480  1.0000
  C   C91       1.0  0.18249  0.53420  0.19410  1.0000
  C   C92       1.0  0.18848  0.50382  0.09330  1.0000
  C   C93       1.0  0.24128  0.49078  0.05350  1.0000
  H   H40       1.0  0.24560  0.47060  0.98400  1.0000
  C   C94       1.0  0.28792  0.50770  0.11660  1.0000
  C   C95       1.0  0.28017  0.53730  0.21980  1.0000
  H   H41       1.0  0.31080  0.54860  0.26360  1.0000
  C   C96       1.0  0.22790  0.55020  0.25850  1.0000
  H   H42       1.0  0.22330  0.56990  0.32850  1.0000
  C   C97       1.0  0.04816  0.49361  0.67810  1.0000
  C   C98       1.0  0.34490  0.49592  0.06970  1.0000
  O   O67       1.0  0.06115  0.44707  0.71600  1.0000
  O   O68       1.0  0.02079  0.53050  0.73220  1.0000
  O   O69       1.0  0.38395  0.51853  0.12310  1.0000
  O   O70       1.0  0.34798  0.46462  0.98260  1.0000
  O   O71       1.0  0.02630  0.66679  0.42110  1.0000
  O   O72       1.0  0.04173  0.63361  0.22340  1.0000
  O   O73       1.0  0.11720  0.66950  0.33400  1.0000
  O   O74       1.0  0.10707  0.53029  0.95860  1.0000
  O   O75       1.0  0.14842  0.43839  0.93580  1.0000
  O   O76       1.0  0.09180  0.45801  0.10500  1.0000
  O   O77       1.0  0.12987  0.55268  0.22620  1.0000
  S   S14       1.0  0.06456  0.64154  0.33984  1.0000
  O   O78       1.0  0.43885  0.05293  0.71600  1.0000
  O   O79       1.0  0.47921  0.96950  0.73220  1.0000
  O   O80       1.0  0.11605  0.98147  0.12310  1.0000
  O   O81       1.0  0.15202  0.03538  0.98260  1.0000
  O   O82       1.0  0.47370  0.83321  0.42110  1.0000
  O   O83       1.0  0.45827  0.86639  0.22340  1.0000
  O   O84       1.0  0.38280  0.83050  0.33400  1.0000
  O   O85       1.0  0.39293  0.96971  0.95860  1.0000
  O   O86       1.0  0.35158  0.06161  0.93580  1.0000
  O   O87       1.0  0.40820  0.04199  0.10500  1.0000
  O   O88       1.0  0.37013  0.94732  0.22620  1.0000
  S   S15       1.0  0.43544  0.85846  0.33984  1.0000
  S   S16       1.0  0.37026  0.01978  0.01580  1.0000
  C   C99       1.0  0.43063  0.99113  0.55610  1.0000
  C   C100      1.0  0.44218  0.94013  0.50770  1.0000
  H   H43       1.0  0.46440  0.91530  0.54910  1.0000
  C   C101      1.0  0.42131  0.92530  0.39840  1.0000
  C   C102      1.0  0.38905  0.96270  0.33850  1.0000
  C   C103      1.0  0.37880  0.01340  0.38350  1.0000
  H   H44       1.0  0.35780  0.03860  0.34010  1.0000
  C   C104      1.0  0.39900  0.02850  0.49360  1.0000
  H   H45       1.0  0.39130  0.06340  0.52480  1.0000
  C   C105      1.0  0.31751  0.96580  0.19410  1.0000
  C   C106      1.0  0.31152  0.99618  0.09330  1.0000
  C   C107      1.0  0.25872  0.00922  0.05350  1.0000
  H   H46       1.0  0.25440  0.02940  0.98400  1.0000
  C   C108      1.0  0.21208  0.99230  0.11660  1.0000
  C   C109      1.0  0.21983  0.96270  0.21980  1.0000
  H   H47       1.0  0.18920  0.95140  0.26360  1.0000
  C   C110      1.0  0.27210  0.94980  0.25850  1.0000
  H   H48       1.0  0.27670  0.93010  0.32850  1.0000
  C   C111      1.0  0.45184  0.00639  0.67810  1.0000
  C   C112      1.0  0.15510  0.00408  0.06970  1.0000
  O   O89       1.0  0.54234  0.49747  0.07290  1.0000
  H   H49       1.0  0.54610  0.46720  0.10480  1.0000
  O   O90       1.0  0.95766  0.00253  0.07290  1.0000
  H   H50       1.0  0.95390  0.03280  0.10480  1.0000
  O   O91       1.0  0.00253  0.54234  0.07290  1.0000
  H   H51       1.0  0.03280  0.54610  0.10480  1.0000
  O   O92       1.0  0.49747  0.95766  0.07290  1.0000
  H   H52       1.0  0.46720  0.95390  0.10480  1.0000
  O   O93       1.0  0.45766  0.50253  0.92710  1.0000
  H   H53       1.0  0.45390  0.53280  0.89520  1.0000
  O   O94       1.0  0.04234  0.99747  0.92710  1.0000
  H   H54       1.0  0.04610  0.96720  0.89520  1.0000
  O   O95       1.0  0.99747  0.45766  0.92710  1.0000
  H   H55       1.0  0.96720  0.45390  0.89520  1.0000
  O   O96       1.0  0.50253  0.04234  0.92710  1.0000
  H   H56       1.0  0.53280  0.04610  0.89520  1.0000
  Cu  Cu1       1.0  0.46246  0.50850  0.10150  1.0000
  Cu  Cu2       1.0  0.59865  0.54413  0.14732  1.0000
  Cu  Cu3       1.0  0.96246  0.00850  0.89850  1.0000
  Cu  Cu4       1.0  0.09865  0.04413  0.85268  1.0000
  Cu  Cu5       1.0  0.99150  0.46246  0.10150  1.0000
  Cu  Cu6       1.0  0.95587  0.59865  0.14732  1.0000
  Cu  Cu7       1.0  0.49150  0.96246  0.89850  1.0000
  Cu  Cu8       1.0  0.45587  0.09865  0.85268  1.0000
  Cu  Cu9       1.0  0.53754  0.49150  0.89850  1.0000
  Cu  Cu10      1.0  0.40135  0.45587  0.85268  1.0000
  Cu  Cu11      1.0  0.03754  0.99150  0.10150  1.0000
  Cu  Cu12      1.0  0.90135  0.95587  0.14732  1.0000
  Cu  Cu13      1.0  0.00850  0.53754  0.89850  1.0000
  Cu  Cu14      1.0  0.04413  0.40135  0.85268  1.0000
  Cu  Cu15      1.0  0.50850  0.03754  0.10150  1.0000
  Cu  Cu16      1.0  0.54413  0.90135  0.14732  1.0000
