data_image0
_chemical_formula_structural       O4NC2OC3HCHCO4NC2OC3HCHCO4NC2OC3HCHCO4NC2OC3HCHCO4NC2OC3HCHCO4NC2OC3HCHCO4NC2OC3HCHCO4NC2OC3HCHCO4NC2OC3HCHCO4NC2OC3HCHCO4NC2OC3HCHCO4NC2OC3HCHCMn16
_chemical_formula_sum              "O60 N12 C84 H24 Mn16"
_cell_length_a       14.1662
_cell_length_b       14.1662
_cell_length_c       14.1662
_cell_angle_alpha    90
_cell_angle_beta     90
_cell_angle_gamma    90

_space_group_name_H-M_alt    "P 1"
_space_group_IT_number       1

loop_
  _space_group_symop_operation_xyz
  'x, y, z'

loop_
  _atom_site_type_symbol
  _atom_site_label
  _atom_site_symmetry_multiplicity
  _atom_site_fract_x
  _atom_site_fract_y
  _atom_site_fract_z
  _atom_site_occupancy
  O   O1        1.0  0.67938  0.07286  0.69256  1.0000
  O   O2        1.0  0.79467  0.82716  0.37160  1.0000
  O   O3        1.0  0.48587  0.77353  0.65662  1.0000
  O   O4        1.0  0.55960  0.70333  0.53613  1.0000
  N   N1        1.0  0.67600  0.84561  0.51396  1.0000
  C   C1        1.0  0.74270  0.91130  0.50690  1.0000
  C   C2        1.0  0.54670  0.77170  0.59350  1.0000
  O   O5        1.0  0.88890  0.93870  0.42870  1.0000
  C   C3        1.0  0.61230  0.85400  0.58410  1.0000
  C   C4        1.0  0.68010  0.00110  0.63650  1.0000
  C   C5        1.0  0.61120  0.92950  0.64560  1.0000
  H   H1        1.0  0.56560  0.93330  0.69260  1.0000
  C   C6        1.0  0.74820  0.98850  0.56450  1.0000
  H   H2        1.0  0.79630  0.03250  0.55650  1.0000
  C   C7        1.0  0.81440  0.89150  0.43070  1.0000
  O   O6        1.0  0.82062  0.92714  0.19256  1.0000
  O   O7        1.0  0.70533  0.17284  0.87160  1.0000
  O   O8        1.0  0.01413  0.22647  0.15662  1.0000
  O   O9        1.0  0.94040  0.29667  0.03613  1.0000
  N   N2        1.0  0.82400  0.15439  0.01396  1.0000
  C   C8        1.0  0.75730  0.08870  0.00690  1.0000
  C   C9        1.0  0.95330  0.22830  0.09350  1.0000
  O   O10       1.0  0.61110  0.06130  0.92870  1.0000
  C   C10       1.0  0.88770  0.14600  0.08410  1.0000
  C   C11       1.0  0.81990  0.99890  0.13650  1.0000
  C   C12       1.0  0.88880  0.07050  0.14560  1.0000
  H   H3        1.0  0.93440  0.06670  0.19260  1.0000
  C   C13       1.0  0.75180  0.01150  0.06450  1.0000
  H   H4        1.0  0.70370  0.96750  0.05650  1.0000
  C   C14       1.0  0.68560  0.10850  0.93070  1.0000
  O   O11       1.0  0.32062  0.57286  0.80744  1.0000
  O   O12       1.0  0.20533  0.32716  0.12840  1.0000
  O   O13       1.0  0.51413  0.27353  0.84338  1.0000
  O   O14       1.0  0.44040  0.20333  0.96387  1.0000
  N   N3        1.0  0.32400  0.34561  0.98604  1.0000
  C   C15       1.0  0.25730  0.41130  0.99310  1.0000
  C   C16       1.0  0.45330  0.27170  0.90650  1.0000
  O   O15       1.0  0.11110  0.43870  0.07130  1.0000
  C   C17       1.0  0.38770  0.35400  0.91590  1.0000
  C   C18       1.0  0.31990  0.50110  0.86350  1.0000
  C   C19       1.0  0.38880  0.42950  0.85440  1.0000
  H   H5        1.0  0.43440  0.43330  0.80740  1.0000
  C   C20       1.0  0.25180  0.48850  0.93550  1.0000
  H   H6        1.0  0.20370  0.53250  0.94350  1.0000
  C   C21       1.0  0.18560  0.39150  0.06930  1.0000
  O   O16       1.0  0.17938  0.42714  0.30744  1.0000
  O   O17       1.0  0.29467  0.67284  0.62840  1.0000
  O   O18       1.0  0.98587  0.72647  0.34338  1.0000
  O   O19       1.0  0.05960  0.79667  0.46387  1.0000
  N   N4        1.0  0.17600  0.65439  0.48604  1.0000
  C   C22       1.0  0.24270  0.58870  0.49310  1.0000
  C   C23       1.0  0.04670  0.72830  0.40650  1.0000
  O   O20       1.0  0.38890  0.56130  0.57130  1.0000
  C   C24       1.0  0.11230  0.64600  0.41590  1.0000
  C   C25       1.0  0.18010  0.49890  0.36350  1.0000
  C   C26       1.0  0.11120  0.57050  0.35440  1.0000
  H   H7        1.0  0.06560  0.56670  0.30740  1.0000
  C   C27       1.0  0.24820  0.51150  0.43550  1.0000
  H   H8        1.0  0.29630  0.46750  0.44350  1.0000
  C   C28       1.0  0.31440  0.60850  0.56930  1.0000
  O   O21       1.0  0.69256  0.67938  0.07286  1.0000
  O   O22       1.0  0.37160  0.79467  0.82716  1.0000
  O   O23       1.0  0.65662  0.48587  0.77353  1.0000
  O   O24       1.0  0.53613  0.55960  0.70333  1.0000
  N   N5        1.0  0.51396  0.67600  0.84561  1.0000
  C   C29       1.0  0.50690  0.74270  0.91130  1.0000
  C   C30       1.0  0.59350  0.54670  0.77170  1.0000
  O   O25       1.0  0.42870  0.88890  0.93870  1.0000
  C   C31       1.0  0.58410  0.61230  0.85400  1.0000
  C   C32       1.0  0.63650  0.68010  0.00110  1.0000
  C   C33       1.0  0.64560  0.61120  0.92950  1.0000
  H   H9        1.0  0.69260  0.56560  0.93330  1.0000
  C   C34       1.0  0.56450  0.74820  0.98850  1.0000
  H   H10       1.0  0.55650  0.79630  0.03250  1.0000
  C   C35       1.0  0.43070  0.81440  0.89150  1.0000
  O   O26       1.0  0.19256  0.82062  0.92714  1.0000
  O   O27       1.0  0.87160  0.70533  0.17284  1.0000
  O   O28       1.0  0.15662  0.01413  0.22647  1.0000
  O   O29       1.0  0.03613  0.94040  0.29667  1.0000
  N   N6        1.0  0.01396  0.82400  0.15439  1.0000
  C   C36       1.0  0.00690  0.75730  0.08870  1.0000
  C   C37       1.0  0.09350  0.95330  0.22830  1.0000
  O   O30       1.0  0.92870  0.61110  0.06130  1.0000
  C   C38       1.0  0.08410  0.88770  0.14600  1.0000
  C   C39       1.0  0.13650  0.81990  0.99890  1.0000
  C   C40       1.0  0.14560  0.88880  0.07050  1.0000
  H   H11       1.0  0.19260  0.93440  0.06670  1.0000
  C   C41       1.0  0.06450  0.75180  0.01150  1.0000
  H   H12       1.0  0.05650  0.70370  0.96750  1.0000
  C   C42       1.0  0.93070  0.68560  0.10850  1.0000
  O   O31       1.0  0.80744  0.32062  0.57286  1.0000
  O   O32       1.0  0.12840  0.20533  0.32716  1.0000
  O   O33       1.0  0.84338  0.51413  0.27353  1.0000
  O   O34       1.0  0.96387  0.44040  0.20333  1.0000
  N   N7        1.0  0.98604  0.32400  0.34561  1.0000
  C   C43       1.0  0.99310  0.25730  0.41130  1.0000
  C   C44       1.0  0.90650  0.45330  0.27170  1.0000
  O   O35       1.0  0.07130  0.11110  0.43870  1.0000
  C   C45       1.0  0.91590  0.38770  0.35400  1.0000
  C   C46       1.0  0.86350  0.31990  0.50110  1.0000
  C   C47       1.0  0.85440  0.38880  0.42950  1.0000
  H   H13       1.0  0.80740  0.43440  0.43330  1.0000
  C   C48       1.0  0.93550  0.25180  0.48850  1.0000
  H   H14       1.0  0.94350  0.20370  0.53250  1.0000
  C   C49       1.0  0.06930  0.18560  0.39150  1.0000
  O   O36       1.0  0.30744  0.17938  0.42714  1.0000
  O   O37       1.0  0.62840  0.29467  0.67284  1.0000
  O   O38       1.0  0.34338  0.98587  0.72647  1.0000
  O   O39       1.0  0.46387  0.05960  0.79667  1.0000
  N   N8        1.0  0.48604  0.17600  0.65439  1.0000
  C   C50       1.0  0.49310  0.24270  0.58870  1.0000
  C   C51       1.0  0.40650  0.04670  0.72830  1.0000
  O   O40       1.0  0.57130  0.38890  0.56130  1.0000
  C   C52       1.0  0.41590  0.11230  0.64600  1.0000
  C   C53       1.0  0.36350  0.18010  0.49890  1.0000
  C   C54       1.0  0.35440  0.11120  0.57050  1.0000
  H   H15       1.0  0.30740  0.06560  0.56670  1.0000
  C   C55       1.0  0.43550  0.24820  0.51150  1.0000
  H   H16       1.0  0.44350  0.29630  0.46750  1.0000
  C   C56       1.0  0.56930  0.31440  0.60850  1.0000
  O   O41       1.0  0.07286  0.69256  0.67938  1.0000
  O   O42       1.0  0.82716  0.37160  0.79467  1.0000
  O   O43       1.0  0.77353  0.65662  0.48587  1.0000
  O   O44       1.0  0.70333  0.53613  0.55960  1.0000
  N   N9        1.0  0.84561  0.51396  0.67600  1.0000
  C   C57       1.0  0.91130  0.50690  0.74270  1.0000
  C   C58       1.0  0.77170  0.59350  0.54670  1.0000
  O   O45       1.0  0.93870  0.42870  0.88890  1.0000
  C   C59       1.0  0.85400  0.58410  0.61230  1.0000
  C   C60       1.0  0.00110  0.63650  0.68010  1.0000
  C   C61       1.0  0.92950  0.64560  0.61120  1.0000
  H   H17       1.0  0.93330  0.69260  0.56560  1.0000
  C   C62       1.0  0.98850  0.56450  0.74820  1.0000
  H   H18       1.0  0.03250  0.55650  0.79630  1.0000
  C   C63       1.0  0.89150  0.43070  0.81440  1.0000
  O   O46       1.0  0.92714  0.19256  0.82062  1.0000
  O   O47       1.0  0.17284  0.87160  0.70533  1.0000
  O   O48       1.0  0.22647  0.15662  0.01413  1.0000
  O   O49       1.0  0.29667  0.03613  0.94040  1.0000
  N   N10       1.0  0.15439  0.01396  0.82400  1.0000
  C   C64       1.0  0.08870  0.00690  0.75730  1.0000
  C   C65       1.0  0.22830  0.09350  0.95330  1.0000
  O   O50       1.0  0.06130  0.92870  0.61110  1.0000
  C   C66       1.0  0.14600  0.08410  0.88770  1.0000
  C   C67       1.0  0.99890  0.13650  0.81990  1.0000
  C   C68       1.0  0.07050  0.14560  0.88880  1.0000
  H   H19       1.0  0.06670  0.19260  0.93440  1.0000
  C   C69       1.0  0.01150  0.06450  0.75180  1.0000
  H   H20       1.0  0.96750  0.05650  0.70370  1.0000
  C   C70       1.0  0.10850  0.93070  0.68560  1.0000
  O   O51       1.0  0.57286  0.80744  0.32062  1.0000
  O   O52       1.0  0.32716  0.12840  0.20533  1.0000
  O   O53       1.0  0.27353  0.84338  0.51413  1.0000
  O   O54       1.0  0.20333  0.96387  0.44040  1.0000
  N   N11       1.0  0.34561  0.98604  0.32400  1.0000
  C   C71       1.0  0.41130  0.99310  0.25730  1.0000
  C   C72       1.0  0.27170  0.90650  0.45330  1.0000
  O   O55       1.0  0.43870  0.07130  0.11110  1.0000
  C   C73       1.0  0.35400  0.91590  0.38770  1.0000
  C   C74       1.0  0.50110  0.86350  0.31990  1.0000
  C   C75       1.0  0.42950  0.85440  0.38880  1.0000
  H   H21       1.0  0.43330  0.80740  0.43440  1.0000
  C   C76       1.0  0.48850  0.93550  0.25180  1.0000
  H   H22       1.0  0.53250  0.94350  0.20370  1.0000
  C   C77       1.0  0.39150  0.06930  0.18560  1.0000
  O   O56       1.0  0.42714  0.30744  0.17938  1.0000
  O   O57       1.0  0.67284  0.62840  0.29467  1.0000
  O   O58       1.0  0.72647  0.34338  0.98587  1.0000
  O   O59       1.0  0.79667  0.46387  0.05960  1.0000
  N   N12       1.0  0.65439  0.48604  0.17600  1.0000
  C   C78       1.0  0.58870  0.49310  0.24270  1.0000
  C   C79       1.0  0.72830  0.40650  0.04670  1.0000
  O   O60       1.0  0.56130  0.57130  0.38890  1.0000
  C   C80       1.0  0.64600  0.41590  0.11230  1.0000
  C   C81       1.0  0.49890  0.36350  0.18010  1.0000
  C   C82       1.0  0.57050  0.35440  0.11120  1.0000
  H   H23       1.0  0.56670  0.30740  0.06560  1.0000
  C   C83       1.0  0.51150  0.43550  0.24820  1.0000
  H   H24       1.0  0.46750  0.44350  0.29630  1.0000
  C   C84       1.0  0.60850  0.56930  0.31440  1.0000
  Mn  Mn1       1.0  0.58503  0.16138  0.77096  1.0000
  Mn  Mn2       1.0  0.77096  0.58503  0.16138  1.0000
  Mn  Mn3       1.0  0.16138  0.77096  0.58503  1.0000
  Mn  Mn4       1.0  0.54669  0.54669  0.54669  1.0000
  Mn  Mn5       1.0  0.95331  0.45331  0.04669  1.0000
  Mn  Mn6       1.0  0.45331  0.04669  0.95331  1.0000
  Mn  Mn7       1.0  0.04669  0.95331  0.45331  1.0000
  Mn  Mn8       1.0  0.91497  0.83862  0.27096  1.0000
  Mn  Mn9       1.0  0.27096  0.91497  0.83862  1.0000
  Mn  Mn10      1.0  0.83862  0.27096  0.91497  1.0000
  Mn  Mn11      1.0  0.41497  0.66138  0.72904  1.0000
  Mn  Mn12      1.0  0.72904  0.41497  0.66138  1.0000
  Mn  Mn13      1.0  0.66138  0.72904  0.41497  1.0000
  Mn  Mn14      1.0  0.08503  0.33862  0.22904  1.0000
  Mn  Mn15      1.0  0.22904  0.08503  0.33862  1.0000
  Mn  Mn16      1.0  0.33862  0.22904  0.08503  1.0000
