data_image0
_chemical_formula_structural       SO6C3HCHC2HCHC2HCHC2HCHCSO6C3HCHC2HCHC2HCHC2HCHCSO6C3HCHC2HCHC2HCHC2HCHC3HCHC2HCHC2HCHCSO6C3HCHC3HCHC2HCHC2HCHC2HCHCSO6C3HCHC2HCHC2HCHC2HCHCSO6SO6C3HCHC2HCHC2HCHC2HCHC2HCHCSO6C3HCHC2HCHC2HCHC4HCHC2HCHC2HCHC2HCHCSO6SO6C3HCHC2HCHC2HCHC2HCHCSO6C3HCHC2HCHC2HCHC2HCHCSO6C3HCHC2HCHC2HCHC2HCHCOH2O2HOHMn12
_chemical_formula_sum              "S12 O76 C168 H100 Mn12"
_cell_length_a       15.9995
_cell_length_b       18.1852
_cell_length_c       24.8199
_cell_angle_alpha    90
_cell_angle_beta     102.917
_cell_angle_gamma    90

_space_group_name_H-M_alt    "P 1"
_space_group_IT_number       1

loop_
  _space_group_symop_operation_xyz
  'x, y, z'

loop_
  _atom_site_type_symbol
  _atom_site_label
  _atom_site_symmetry_multiplicity
  _atom_site_fract_x
  _atom_site_fract_y
  _atom_site_fract_z
  _atom_site_occupancy
  S   S1        1.0  0.09855  0.74178  0.62098  1.0000
  O   O1        1.0  0.35313  0.00168  0.54883  1.0000
  O   O2        1.0  0.70835  0.83110  0.46863  1.0000
  O   O3        1.0  0.33445  0.05156  0.62591  1.0000
  O   O4        1.0  0.67376  0.76009  0.53476  1.0000
  O   O5        1.0  0.12440  0.68238  0.59034  1.0000
  O   O6        1.0  0.10280  0.73250  0.67983  1.0000
  C   C1        1.0  0.32170  0.00050  0.59112  1.0000
  C   C2        1.0  0.26450  0.93650  0.59917  1.0000
  C   C3        1.0  0.23750  0.88700  0.55699  1.0000
  H   H1        1.0  0.25410  0.89290  0.52370  1.0000
  C   C4        1.0  0.18620  0.82880  0.56379  1.0000
  H   H2        1.0  0.16880  0.79520  0.53520  1.0000
  C   C5        1.0  0.16060  0.81980  0.61233  1.0000
  C   C6        1.0  0.18620  0.86880  0.65470  1.0000
  H   H3        1.0  0.16810  0.86270  0.68750  1.0000
  C   C7        1.0  0.23910  0.92810  0.64905  1.0000
  H   H4        1.0  0.25700  0.96110  0.67790  1.0000
  C   C8        1.0  0.99090  0.76230  0.58830  1.0000
  C   C9        1.0  0.96850  0.78320  0.53450  1.0000
  H   H5        1.0  0.01050  0.78960  0.51450  1.0000
  C   C10       1.0  0.88250  0.79510  0.50920  1.0000
  H   H6        1.0  0.86730  0.81160  0.47280  1.0000
  C   C11       1.0  0.81930  0.78200  0.53883  1.0000
  C   C12       1.0  0.84210  0.75830  0.59190  1.0000
  H   H7        1.0  0.79970  0.74740  0.61090  1.0000
  C   C13       1.0  0.92870  0.74990  0.61871  1.0000
  H   H8        1.0  0.94410  0.73640  0.65580  1.0000
  C   C14       1.0  0.72500  0.79210  0.51121  1.0000
  S   S2        1.0  0.48144  0.80093  0.86260  1.0000
  O   O7        1.0  0.46072  0.87809  0.59708  1.0000
  O   O8        1.0  0.85373  0.63772  0.96928  1.0000
  O   O9        1.0  0.89590  0.75413  0.99045  1.0000
  O   O10       1.0  0.53258  0.77201  0.60128  1.0000
  O   O11       1.0  0.42550  0.74110  0.86884  1.0000
  O   O12       1.0  0.46440  0.87270  0.88122  1.0000
  C   C15       1.0  0.49590  0.82170  0.62162  1.0000
  C   C16       1.0  0.49300  0.81680  0.68188  1.0000
  C   C17       1.0  0.46410  0.87570  0.70764  1.0000
  H   H9        1.0  0.44670  0.91850  0.68780  1.0000
  C   C18       1.0  0.46070  0.87170  0.76337  1.0000
  H   H10       1.0  0.44120  0.91140  0.78080  1.0000
  C   C19       1.0  0.48690  0.80750  0.79200  1.0000
  C   C20       1.0  0.51480  0.74720  0.76686  1.0000
  H   H11       1.0  0.53110  0.70410  0.78670  1.0000
  C   C21       1.0  0.51820  0.75190  0.71106  1.0000
  H   H12       1.0  0.53720  0.71210  0.69360  1.0000
  C   C22       1.0  0.58640  0.77370  0.89540  1.0000
  C   C23       1.0  0.64810  0.82770  0.91561  1.0000
  H   H13       1.0  0.63340  0.87720  0.91270  1.0000
  C   C24       1.0  0.73090  0.80630  0.93984  1.0000
  H   H14       1.0  0.77240  0.84130  0.95410  1.0000
  C   C25       1.0  0.75150  0.73090  0.94263  1.0000
  C   C26       1.0  0.69070  0.67850  0.92177  1.0000
  H   H15       1.0  0.70560  0.62900  0.92290  1.0000
  C   C27       1.0  0.60620  0.70040  0.89873  1.0000
  H   H16       1.0  0.56410  0.66550  0.88580  1.0000
  C   C28       1.0  0.84220  0.70640  0.96958  1.0000
  S   S3        1.0  0.95446  0.00258  0.70564  1.0000
  O   O13       1.0  0.55362  0.00197  0.55219  1.0000
  O   O14       1.0  0.05600  0.70850  0.86898  1.0000
  O   O15       1.0  0.53022  0.06763  0.62384  1.0000
  O   O16       1.0  0.02950  0.78820  0.93148  1.0000
  O   O17       1.0  0.97940  0.07210  0.73271  1.0000
  O   O18       1.0  0.99490  0.97810  0.66206  1.0000
  C   C29       1.0  0.57760  0.03080  0.60033  1.0000
  C   C30       1.0  0.67100  0.02020  0.62847  1.0000
  C   C31       1.0  0.70690  0.06200  0.67484  1.0000
  H   H17       1.0  0.67240  0.09380  0.68960  1.0000
  C   C32       1.0  0.79350  0.05660  0.69928  1.0000
  H   H18       1.0  0.81790  0.08570  0.72950  1.0000
  C   C33       1.0  0.84260  0.00700  0.67779  1.0000
  C   C34       1.0  0.80650  0.96340  0.63259  1.0000
  H   H19       1.0  0.84020  0.92970  0.61890  1.0000
  C   C35       1.0  0.72020  0.97040  0.60792  1.0000
  H   H20       1.0  0.69570  0.94140  0.57760  1.0000
  C   C36       1.0  0.97130  0.93340  0.75663  1.0000
  C   C37       1.0  0.96040  0.94920  0.80930  1.0000
  H   H21       1.0  0.93970  0.99490  0.81710  1.0000
  C   C38       1.0  0.98070  0.89600  0.85000  1.0000
  H   H22       1.0  0.97520  0.90670  0.88570  1.0000
  C   C39       1.0  0.00900  0.82750  0.83840  1.0000
  C   C40       1.0  0.01680  0.81200  0.78519  1.0000
  H   H23       1.0  0.03530  0.76570  0.77690  1.0000
  C   C41       1.0  0.99700  0.86550  0.74390  1.0000
  H   H24       1.0  0.00140  0.85490  0.70800  1.0000
  C   C42       1.0  0.03310  0.77070  0.88300  1.0000
  C   C43       1.0  0.33940  0.31980  0.88767  1.0000
  C   C44       1.0  0.31380  0.36880  0.84530  1.0000
  H   H25       1.0  0.33190  0.36270  0.81250  1.0000
  C   C45       1.0  0.26090  0.42810  0.85095  1.0000
  H   H26       1.0  0.24300  0.46110  0.82210  1.0000
  C   C46       1.0  0.50910  0.26230  0.91170  1.0000
  C   C47       1.0  0.53150  0.28320  0.96550  1.0000
  H   H27       1.0  0.48950  0.28960  0.98550  1.0000
  C   C48       1.0  0.61750  0.29510  0.99080  1.0000
  H   H28       1.0  0.63270  0.31160  0.02720  1.0000
  C   C49       1.0  0.68070  0.28200  0.96117  1.0000
  C   C50       1.0  0.65790  0.25830  0.90810  1.0000
  H   H29       1.0  0.70030  0.24740  0.88910  1.0000
  C   C51       1.0  0.57130  0.24990  0.88129  1.0000
  H   H30       1.0  0.55590  0.23640  0.84420  1.0000
  C   C52       1.0  0.77500  0.29210  0.98879  1.0000
  S   S4        1.0  0.40145  0.24178  0.87902  1.0000
  O   O19       1.0  0.14687  0.50168  0.95117  1.0000
  O   O20       1.0  0.79165  0.33110  0.03137  1.0000
  O   O21       1.0  0.16555  0.55156  0.87409  1.0000
  O   O22       1.0  0.82624  0.26009  0.96524  1.0000
  O   O23       1.0  0.37560  0.18238  0.90966  1.0000
  O   O24       1.0  0.39720  0.23250  0.82017  1.0000
  C   C53       1.0  0.17830  0.50050  0.90888  1.0000
  C   C54       1.0  0.23550  0.43650  0.90083  1.0000
  C   C55       1.0  0.26250  0.38700  0.94301  1.0000
  H   H31       1.0  0.24590  0.39290  0.97630  1.0000
  C   C56       1.0  0.31380  0.32880  0.93621  1.0000
  H   H32       1.0  0.33120  0.29520  0.96480  1.0000
  C   C57       1.0  0.00410  0.32170  0.87838  1.0000
  C   C58       1.0  0.00700  0.31680  0.81812  1.0000
  C   C59       1.0  0.03590  0.37570  0.79236  1.0000
  H   H33       1.0  0.05330  0.41850  0.81220  1.0000
  C   C60       1.0  0.03930  0.37170  0.73663  1.0000
  H   H34       1.0  0.05880  0.41140  0.71920  1.0000
  C   C61       1.0  0.01310  0.30750  0.70800  1.0000
  C   C62       1.0  0.98520  0.24720  0.73314  1.0000
  H   H35       1.0  0.96890  0.20410  0.71330  1.0000
  C   C63       1.0  0.98180  0.25190  0.78894  1.0000
  H   H36       1.0  0.96280  0.21210  0.80640  1.0000
  C   C64       1.0  0.91360  0.27370  0.60460  1.0000
  C   C65       1.0  0.85190  0.32770  0.58439  1.0000
  H   H37       1.0  0.86660  0.37720  0.58730  1.0000
  C   C66       1.0  0.76910  0.30630  0.56016  1.0000
  H   H38       1.0  0.72760  0.34130  0.54590  1.0000
  C   C67       1.0  0.74850  0.23090  0.55737  1.0000
  C   C68       1.0  0.80930  0.17850  0.57823  1.0000
  H   H39       1.0  0.79440  0.12900  0.57710  1.0000
  C   C69       1.0  0.89380  0.20040  0.60127  1.0000
  H   H40       1.0  0.93590  0.16550  0.61420  1.0000
  C   C70       1.0  0.65780  0.20640  0.53042  1.0000
  S   S5        1.0  0.01856  0.30093  0.63740  1.0000
  O   O25       1.0  0.03928  0.37809  0.90292  1.0000
  O   O26       1.0  0.64627  0.13772  0.53072  1.0000
  O   O27       1.0  0.60410  0.25413  0.50955  1.0000
  O   O28       1.0  0.96742  0.27201  0.89872  1.0000
  O   O29       1.0  0.07450  0.24110  0.63116  1.0000
  O   O30       1.0  0.03560  0.37270  0.61878  1.0000
  C   C71       1.0  0.92240  0.53080  0.89967  1.0000
  C   C72       1.0  0.82900  0.52020  0.87153  1.0000
  C   C73       1.0  0.79310  0.56200  0.82516  1.0000
  H   H41       1.0  0.82760  0.59380  0.81040  1.0000
  C   C74       1.0  0.70650  0.55660  0.80072  1.0000
  H   H42       1.0  0.68210  0.58570  0.77050  1.0000
  C   C75       1.0  0.65740  0.50700  0.82221  1.0000
  C   C76       1.0  0.69350  0.46340  0.86741  1.0000
  H   H43       1.0  0.65980  0.42970  0.88110  1.0000
  C   C77       1.0  0.77980  0.47040  0.89208  1.0000
  H   H44       1.0  0.80430  0.44140  0.92240  1.0000
  C   C78       1.0  0.52870  0.43340  0.74337  1.0000
  C   C79       1.0  0.53960  0.44920  0.69070  1.0000
  H   H45       1.0  0.56030  0.49490  0.68290  1.0000
  C   C80       1.0  0.51930  0.39600  0.65000  1.0000
  H   H46       1.0  0.52480  0.40670  0.61430  1.0000
  C   C81       1.0  0.49100  0.32750  0.66160  1.0000
  C   C82       1.0  0.48320  0.31200  0.71481  1.0000
  H   H47       1.0  0.46470  0.26570  0.72310  1.0000
  C   C83       1.0  0.50300  0.36550  0.75610  1.0000
  H   H48       1.0  0.49860  0.35490  0.79200  1.0000
  C   C84       1.0  0.46690  0.27070  0.61700  1.0000
  S   S6        1.0  0.54554  0.50258  0.79436  1.0000
  O   O31       1.0  0.94638  0.50197  0.94781  1.0000
  O   O32       1.0  0.44400  0.20850  0.63102  1.0000
  O   O33       1.0  0.96978  0.56763  0.87616  1.0000
  O   O34       1.0  0.47050  0.28820  0.56852  1.0000
  O   O35       1.0  0.52060  0.57210  0.76729  1.0000
  O   O36       1.0  0.50510  0.47810  0.83794  1.0000
  S   S7        1.0  0.90145  0.25822  0.37902  1.0000
  O   O37       1.0  0.64687  0.99832  0.45117  1.0000
  O   O38       1.0  0.29165  0.16890  0.53137  1.0000
  O   O39       1.0  0.66555  0.94844  0.37409  1.0000
  O   O40       1.0  0.32624  0.23991  0.46524  1.0000
  O   O41       1.0  0.87560  0.31762  0.40966  1.0000
  O   O42       1.0  0.89720  0.26750  0.32017  1.0000
  C   C85       1.0  0.67830  0.99950  0.40888  1.0000
  C   C86       1.0  0.73550  0.06350  0.40083  1.0000
  C   C87       1.0  0.76250  0.11300  0.44301  1.0000
  H   H49       1.0  0.74590  0.10710  0.47630  1.0000
  C   C88       1.0  0.81380  0.17120  0.43621  1.0000
  H   H50       1.0  0.83120  0.20480  0.46480  1.0000
  C   C89       1.0  0.83940  0.18020  0.38767  1.0000
  C   C90       1.0  0.81380  0.13120  0.34530  1.0000
  H   H51       1.0  0.83190  0.13730  0.31250  1.0000
  C   C91       1.0  0.76090  0.07190  0.35095  1.0000
  H   H52       1.0  0.74300  0.03890  0.32210  1.0000
  C   C92       1.0  0.00910  0.23770  0.41170  1.0000
  C   C93       1.0  0.03150  0.21680  0.46550  1.0000
  H   H53       1.0  0.98950  0.21040  0.48550  1.0000
  C   C94       1.0  0.11750  0.20490  0.49080  1.0000
  H   H54       1.0  0.13270  0.18840  0.52720  1.0000
  C   C95       1.0  0.18070  0.21800  0.46117  1.0000
  C   C96       1.0  0.15790  0.24170  0.40810  1.0000
  H   H55       1.0  0.20030  0.25260  0.38910  1.0000
  C   C97       1.0  0.07130  0.25010  0.38129  1.0000
  H   H56       1.0  0.05590  0.26360  0.34420  1.0000
  C   C98       1.0  0.27500  0.20790  0.48879  1.0000
  C   C99       1.0  0.30930  0.32150  0.07823  1.0000
  H   H57       1.0  0.29440  0.37100  0.07710  1.0000
  C   C100      1.0  0.39380  0.29960  0.10127  1.0000
  H   H58       1.0  0.43590  0.33450  0.11420  1.0000
  C   C101      1.0  0.15780  0.29360  0.03042  1.0000
  S   S8        1.0  0.51856  0.19907  0.13740  1.0000
  O   O43       1.0  0.53928  0.12191  0.40292  1.0000
  O   O44       1.0  0.14627  0.36228  0.03072  1.0000
  O   O45       1.0  0.10410  0.24587  0.00955  1.0000
  O   O46       1.0  0.46742  0.22799  0.39872  1.0000
  O   O47       1.0  0.57450  0.25890  0.13116  1.0000
  O   O48       1.0  0.53560  0.12730  0.11878  1.0000
  C   C102      1.0  0.50410  0.17830  0.37838  1.0000
  C   C103      1.0  0.50700  0.18320  0.31812  1.0000
  C   C104      1.0  0.53590  0.12430  0.29236  1.0000
  H   H59       1.0  0.55330  0.08150  0.31220  1.0000
  C   C105      1.0  0.53930  0.12830  0.23663  1.0000
  H   H60       1.0  0.55880  0.08860  0.21920  1.0000
  C   C106      1.0  0.51310  0.19250  0.20800  1.0000
  C   C107      1.0  0.48520  0.25280  0.23314  1.0000
  H   H61       1.0  0.46890  0.29590  0.21330  1.0000
  C   C108      1.0  0.48180  0.24810  0.28894  1.0000
  H   H62       1.0  0.46280  0.28790  0.30640  1.0000
  C   C109      1.0  0.41360  0.22630  0.10460  1.0000
  C   C110      1.0  0.35190  0.17230  0.08439  1.0000
  H   H63       1.0  0.36660  0.12280  0.08730  1.0000
  C   C111      1.0  0.26910  0.19370  0.06016  1.0000
  H   H64       1.0  0.22760  0.15870  0.04590  1.0000
  C   C112      1.0  0.24850  0.26910  0.05737  1.0000
  C   C113      1.0  0.42240  0.96920  0.39967  1.0000
  C   C114      1.0  0.32900  0.97980  0.37153  1.0000
  C   C115      1.0  0.29310  0.93800  0.32516  1.0000
  H   H65       1.0  0.32760  0.90620  0.31040  1.0000
  C   C116      1.0  0.20650  0.94340  0.30072  1.0000
  H   H66       1.0  0.18210  0.91430  0.27050  1.0000
  C   C117      1.0  0.15740  0.99300  0.32221  1.0000
  C   C118      1.0  0.19350  0.03660  0.36741  1.0000
  H   H67       1.0  0.15980  0.07030  0.38110  1.0000
  C   C119      1.0  0.27980  0.02960  0.39208  1.0000
  H   H68       1.0  0.30430  0.05860  0.42240  1.0000
  C   C120      1.0  0.02870  0.06660  0.24337  1.0000
  C   C121      1.0  0.03960  0.05080  0.19070  1.0000
  H   H69       1.0  0.06030  0.00510  0.18290  1.0000
  C   C122      1.0  0.01930  0.10400  0.15000  1.0000
  H   H70       1.0  0.02480  0.09330  0.11430  1.0000
  C   C123      1.0  0.99100  0.17250  0.16160  1.0000
  C   C124      1.0  0.98320  0.18800  0.21481  1.0000
  H   H71       1.0  0.96470  0.23430  0.22310  1.0000
  C   C125      1.0  0.00300  0.13450  0.25610  1.0000
  H   H72       1.0  0.99860  0.14510  0.29200  1.0000
  C   C126      1.0  0.96690  0.22930  0.11700  1.0000
  S   S9        1.0  0.04554  0.99742  0.29436  1.0000
  O   O49       1.0  0.44638  0.99803  0.44781  1.0000
  O   O50       1.0  0.94400  0.29150  0.13102  1.0000
  O   O51       1.0  0.46978  0.93237  0.37616  1.0000
  O   O52       1.0  0.97050  0.21180  0.06852  1.0000
  O   O53       1.0  0.02060  0.92790  0.26729  1.0000
  O   O54       1.0  0.00510  0.02190  0.33794  1.0000
  S   S10       1.0  0.59855  0.75822  0.12098  1.0000
  O   O55       1.0  0.85313  0.49832  0.04883  1.0000
  O   O56       1.0  0.20835  0.66890  0.96863  1.0000
  O   O57       1.0  0.83445  0.44844  0.12591  1.0000
  O   O58       1.0  0.17376  0.73991  0.03476  1.0000
  O   O59       1.0  0.62440  0.81762  0.09034  1.0000
  O   O60       1.0  0.60280  0.76750  0.17983  1.0000
  C   C127      1.0  0.82170  0.49950  0.09112  1.0000
  C   C128      1.0  0.76450  0.56350  0.09917  1.0000
  C   C129      1.0  0.73750  0.61300  0.05699  1.0000
  H   H73       1.0  0.75410  0.60710  0.02370  1.0000
  C   C130      1.0  0.68620  0.67120  0.06379  1.0000
  H   H74       1.0  0.66880  0.70480  0.03520  1.0000
  C   C131      1.0  0.66060  0.68020  0.11233  1.0000
  C   C132      1.0  0.68620  0.63120  0.15470  1.0000
  H   H75       1.0  0.66810  0.63730  0.18750  1.0000
  C   C133      1.0  0.73910  0.57190  0.14905  1.0000
  H   H76       1.0  0.75700  0.53890  0.17790  1.0000
  C   C134      1.0  0.49090  0.73770  0.08830  1.0000
  C   C135      1.0  0.46850  0.71680  0.03450  1.0000
  H   H77       1.0  0.51050  0.71040  0.01450  1.0000
  C   C136      1.0  0.38250  0.70490  0.00920  1.0000
  H   H78       1.0  0.36730  0.68840  0.97280  1.0000
  C   C137      1.0  0.31930  0.71800  0.03883  1.0000
  C   C138      1.0  0.34210  0.74170  0.09190  1.0000
  H   H79       1.0  0.29970  0.75260  0.11090  1.0000
  C   C139      1.0  0.42870  0.75010  0.11871  1.0000
  H   H80       1.0  0.44410  0.76360  0.15580  1.0000
  C   C140      1.0  0.22500  0.70790  0.01121  1.0000
  S   S11       1.0  0.98144  0.69907  0.36260  1.0000
  O   O61       1.0  0.96072  0.62191  0.09708  1.0000
  O   O62       1.0  0.35373  0.86228  0.46928  1.0000
  O   O63       1.0  0.39590  0.74587  0.49045  1.0000
  O   O64       1.0  0.03258  0.72799  0.10128  1.0000
  O   O65       1.0  0.92550  0.75890  0.36884  1.0000
  O   O66       1.0  0.96440  0.62730  0.38122  1.0000
  C   C141      1.0  0.99590  0.67830  0.12162  1.0000
  C   C142      1.0  0.99300  0.68320  0.18188  1.0000
  C   C143      1.0  0.96410  0.62430  0.20764  1.0000
  H   H81       1.0  0.94670  0.58150  0.18780  1.0000
  C   C144      1.0  0.96070  0.62830  0.26337  1.0000
  H   H82       1.0  0.94120  0.58860  0.28080  1.0000
  C   C145      1.0  0.98690  0.69250  0.29200  1.0000
  C   C146      1.0  0.01480  0.75280  0.26686  1.0000
  H   H83       1.0  0.03110  0.79590  0.28670  1.0000
  C   C147      1.0  0.01820  0.74810  0.21106  1.0000
  H   H84       1.0  0.03720  0.78790  0.19360  1.0000
  C   C148      1.0  0.08640  0.72630  0.39540  1.0000
  C   C149      1.0  0.14810  0.67230  0.41561  1.0000
  H   H85       1.0  0.13340  0.62280  0.41270  1.0000
  C   C150      1.0  0.23090  0.69370  0.43984  1.0000
  H   H86       1.0  0.27240  0.65870  0.45410  1.0000
  C   C151      1.0  0.25150  0.76910  0.44263  1.0000
  C   C152      1.0  0.19070  0.82150  0.42177  1.0000
  H   H87       1.0  0.20560  0.87100  0.42290  1.0000
  C   C153      1.0  0.10620  0.79960  0.39873  1.0000
  H   H88       1.0  0.06410  0.83450  0.38580  1.0000
  C   C154      1.0  0.34220  0.79360  0.46958  1.0000
  S   S12       1.0  0.45446  0.49742  0.20564  1.0000
  O   O67       1.0  0.05362  0.49803  0.05219  1.0000
  O   O68       1.0  0.55600  0.79150  0.36898  1.0000
  O   O69       1.0  0.03022  0.43237  0.12384  1.0000
  O   O70       1.0  0.52950  0.71180  0.43148  1.0000
  O   O71       1.0  0.47940  0.42790  0.23271  1.0000
  O   O72       1.0  0.49490  0.52190  0.16206  1.0000
  C   C155      1.0  0.07760  0.46920  0.10033  1.0000
  C   C156      1.0  0.17100  0.47980  0.12847  1.0000
  C   C157      1.0  0.20690  0.43800  0.17484  1.0000
  H   H89       1.0  0.17240  0.40620  0.18960  1.0000
  C   C158      1.0  0.29350  0.44340  0.19928  1.0000
  H   H90       1.0  0.31790  0.41430  0.22950  1.0000
  C   C159      1.0  0.34260  0.49300  0.17779  1.0000
  C   C160      1.0  0.30650  0.53660  0.13259  1.0000
  H   H91       1.0  0.34020  0.57030  0.11890  1.0000
  C   C161      1.0  0.22020  0.52960  0.10792  1.0000
  H   H92       1.0  0.19570  0.55860  0.07760  1.0000
  C   C162      1.0  0.47130  0.56660  0.25663  1.0000
  C   C163      1.0  0.46040  0.55080  0.30930  1.0000
  H   H93       1.0  0.43970  0.50510  0.31710  1.0000
  C   C164      1.0  0.48070  0.60400  0.35000  1.0000
  H   H94       1.0  0.47520  0.59330  0.38570  1.0000
  C   C165      1.0  0.50900  0.67250  0.33840  1.0000
  C   C166      1.0  0.51680  0.68800  0.28519  1.0000
  H   H95       1.0  0.53530  0.73430  0.27690  1.0000
  C   C167      1.0  0.49700  0.63450  0.24390  1.0000
  H   H96       1.0  0.50140  0.64510  0.20800  1.0000
  C   C168      1.0  0.53310  0.72930  0.38300  1.0000
  O   O73       1.0  0.53699  0.86308  0.49104  1.0000
  H   H97       1.0  0.58740  0.87750  0.51940  1.0000
  H   H98       1.0  0.91260  0.37750  0.98060  1.0000
  O   O74       1.0  0.96301  0.36308  0.00896  1.0000
  O   O75       1.0  0.46301  0.13692  0.50896  1.0000
  H   H99       1.0  0.41260  0.12250  0.48060  1.0000
  O   O76       1.0  0.03699  0.63692  0.99104  1.0000
  H   H100      1.0  0.08740  0.62250  0.01940  1.0000
  Mn  Mn1       1.0  0.44614  0.92938  0.52057  1.0000
  Mn  Mn2       1.0  0.59070  0.88112  0.42317  1.0000
  Mn  Mn3       1.0  0.53544  0.75007  0.51480  1.0000
  Mn  Mn4       1.0  0.90930  0.38112  0.07683  1.0000
  Mn  Mn5       1.0  0.96456  0.25007  0.98520  1.0000
  Mn  Mn6       1.0  0.40930  0.11888  0.57683  1.0000
  Mn  Mn7       1.0  0.46456  0.24993  0.48520  1.0000
  Mn  Mn8       1.0  0.03544  0.74993  0.01480  1.0000
  Mn  Mn9       1.0  0.09070  0.61888  0.92317  1.0000
  Mn  Mn10      1.0  0.94614  0.57062  0.02057  1.0000
  Mn  Mn11      1.0  0.55386  0.07062  0.47943  1.0000
  Mn  Mn12      1.0  0.05386  0.42938  0.97943  1.0000
