data_image0
_chemical_formula_structural       S2NCHCHCHC2HCHCHCHNC2HO2CHC2HC3HO2CHC2HC3HO2C4HCHCHO2C4HCHCHS2NCHCHCHC2HCHCHCHNC2HZn2
_chemical_formula_sum              "S4 N4 C44 H28 O8 Zn2"
_cell_length_a       11.1182
_cell_length_b       11.2423
_cell_length_c       11.6976
_cell_angle_alpha    65.31
_cell_angle_beta     74.889
_cell_angle_gamma    72.067

_space_group_name_H-M_alt    "P 1"
_space_group_IT_number       1

loop_
  _space_group_symop_operation_xyz
  'x, y, z'

loop_
  _atom_site_type_symbol
  _atom_site_label
  _atom_site_symmetry_multiplicity
  _atom_site_fract_x
  _atom_site_fract_y
  _atom_site_fract_z
  _atom_site_occupancy
  S   S1        1.0  0.68466  0.27267  0.83280  1.0000
  S   S2        1.0  0.57017  0.40151  0.70093  1.0000
  N   N1        1.0  0.05380  0.08790  0.62770  1.0000
  C   C1        1.0  0.95480  0.16220  0.56420  1.0000
  H   H1        1.0  0.96420  0.17360  0.47740  1.0000
  C   C2        1.0  0.84090  0.22230  0.61820  1.0000
  H   H2        1.0  0.77390  0.27520  0.56920  1.0000
  C   C3        1.0  0.03650  0.07040  0.75100  1.0000
  H   H3        1.0  0.10530  0.01750  0.79770  1.0000
  C   C4        1.0  0.62820  0.55070  0.63550  1.0000
  C   C5        1.0  0.59560  0.78340  0.50840  1.0000
  H   H4        1.0  0.54330  0.86250  0.45750  1.0000
  C   C6        1.0  0.77870  0.67670  0.59890  1.0000
  H   H5        1.0  0.85820  0.67970  0.61250  1.0000
  C   C7        1.0  0.55310  0.66720  0.56120  1.0000
  H   H6        1.0  0.47310  0.66620  0.54710  1.0000
  C   C8        1.0  0.74270  0.55720  0.65480  1.0000
  H   H7        1.0  0.79570  0.47950  0.70640  1.0000
  N   N2        1.0  0.70780  0.79140  0.52500  1.0000
  C   C9        1.0  0.82450  0.20510  0.74500  1.0000
  C   C10       1.0  0.92530  0.12470  0.81320  1.0000
  H   H8        1.0  0.91680  0.10810  0.90120  1.0000
  O   O1        1.0  0.67330  0.03920  0.58990  1.0000
  O   O2        1.0  0.83840  0.88930  0.67580  1.0000
  C   C11       1.0  0.72760  0.90650  0.92000  1.0000
  H   H9        1.0  0.81560  0.86330  0.91010  1.0000
  C   C12       1.0  0.66260  0.97020  0.81340  1.0000
  C   C13       1.0  0.66450  0.90640  0.03770  1.0000
  H   H10       1.0  0.70920  0.86490  0.10870  1.0000
  C   C14       1.0  0.73260  0.96430  0.68650  1.0000
  C   C15       1.0  0.53250  0.96840  0.05280  1.0000
  C   C16       1.0  0.53690  0.03280  0.82590  1.0000
  H   H11       1.0  0.49480  0.07790  0.75310  1.0000
  O   O3        1.0  0.32670  0.96080  0.41010  1.0000
  O   O4        1.0  0.16160  0.11070  0.32420  1.0000
  C   C17       1.0  0.27240  0.09350  0.08000  1.0000
  H   H12       1.0  0.18440  0.13670  0.08990  1.0000
  C   C18       1.0  0.33740  0.02980  0.18660  1.0000
  C   C19       1.0  0.33550  0.09360  0.96230  1.0000
  H   H13       1.0  0.29080  0.13510  0.89130  1.0000
  C   C20       1.0  0.26740  0.03570  0.31350  1.0000
  C   C21       1.0  0.46750  0.03160  0.94720  1.0000
  C   C22       1.0  0.46310  0.96720  0.17410  1.0000
  H   H14       1.0  0.50520  0.92210  0.24690  1.0000
  O   O5        1.0  0.65920  0.07650  0.31240  1.0000
  O   O6        1.0  0.77120  0.21330  0.30350  1.0000
  C   C23       1.0  0.61250  0.30090  0.16540  1.0000
  C   C24       1.0  0.68780  0.19140  0.26490  1.0000
  C   C25       1.0  0.55290  0.52170  0.00030  1.0000
  C   C26       1.0  0.64620  0.41650  0.09560  1.0000
  H   H15       1.0  0.72150  0.43450  0.10270  1.0000
  C   C27       1.0  0.50000  0.27630  0.14970  1.0000
  H   H16       1.0  0.48150  0.19090  0.20140  1.0000
  C   C28       1.0  0.58340  0.63560  0.93290  1.0000
  H   H17       1.0  0.65710  0.65660  0.93980  1.0000
  O   O7        1.0  0.34080  0.92350  0.68760  1.0000
  O   O8        1.0  0.22880  0.78670  0.69650  1.0000
  C   C29       1.0  0.38750  0.69910  0.83460  1.0000
  C   C30       1.0  0.31220  0.80860  0.73510  1.0000
  C   C31       1.0  0.44710  0.47830  0.99970  1.0000
  C   C32       1.0  0.35380  0.58350  0.90440  1.0000
  H   H18       1.0  0.27850  0.56550  0.89730  1.0000
  C   C33       1.0  0.50000  0.72370  0.85030  1.0000
  H   H19       1.0  0.51850  0.80910  0.79860  1.0000
  C   C34       1.0  0.41660  0.36440  0.06710  1.0000
  H   H20       1.0  0.34290  0.34340  0.06020  1.0000
  S   S3        1.0  0.31534  0.72733  0.16720  1.0000
  S   S4        1.0  0.42983  0.59849  0.29907  1.0000
  N   N3        1.0  0.94620  0.91210  0.37230  1.0000
  C   C35       1.0  0.04520  0.83780  0.43580  1.0000
  H   H21       1.0  0.03580  0.82640  0.52260  1.0000
  C   C36       1.0  0.15910  0.77770  0.38180  1.0000
  H   H22       1.0  0.22610  0.72480  0.43080  1.0000
  C   C37       1.0  0.96350  0.92960  0.24900  1.0000
  H   H23       1.0  0.89470  0.98250  0.20230  1.0000
  C   C38       1.0  0.37180  0.44930  0.36450  1.0000
  C   C39       1.0  0.40440  0.21660  0.49160  1.0000
  H   H24       1.0  0.45670  0.13750  0.54250  1.0000
  C   C40       1.0  0.22130  0.32330  0.40110  1.0000
  H   H25       1.0  0.14180  0.32030  0.38750  1.0000
  C   C41       1.0  0.44690  0.33280  0.43880  1.0000
  H   H26       1.0  0.52690  0.33380  0.45290  1.0000
  C   C42       1.0  0.25730  0.44280  0.34520  1.0000
  H   H27       1.0  0.20430  0.52050  0.29360  1.0000
  N   N4        1.0  0.29220  0.20860  0.47500  1.0000
  C   C43       1.0  0.17550  0.79490  0.25500  1.0000
  C   C44       1.0  0.07470  0.87530  0.18680  1.0000
  H   H28       1.0  0.08320  0.89190  0.09880  1.0000
  Zn  Zn1       1.0  0.76391  0.97346  0.45231  1.0000
  Zn  Zn2       1.0  0.23609  0.02654  0.54769  1.0000
