data_image0
_chemical_formula_structural       SNCHC2HCHCHSNCHC2HCHCHCHO2C4HCHCH2CHC2O2C2SNCHC2HCHCHSNCHC2HCHCHO2C3HCHCHCO2C3HCHCHCO2C3HO2C3HCH2CHC2HC2O2C3HCHCHCO2C3HCHCHCSNCHC2HCHCHSNCHC2HCHCHCHC2HCHCHSNCHC2HCHCHSNCo4
_chemical_formula_sum              "S8 N8 C88 H56 O16 Co4"
_cell_length_a       10.4806
_cell_length_b       21.312
_cell_length_c       11.3293
_cell_angle_alpha    90
_cell_angle_beta     94.497
_cell_angle_gamma    90

_space_group_name_H-M_alt    "P 1"
_space_group_IT_number       1

loop_
  _space_group_symop_operation_xyz
  'x, y, z'

loop_
  _atom_site_type_symbol
  _atom_site_label
  _atom_site_symmetry_multiplicity
  _atom_site_fract_x
  _atom_site_fract_y
  _atom_site_fract_z
  _atom_site_occupancy
  S   S1        1.0  0.49519  0.22555  0.41029  1.0000
  N   N1        1.0  0.21658  0.07184  0.27831  1.0000
  C   C1        1.0  0.39754  0.13793  0.25616  1.0000
  H   H1        1.0  0.46190  0.15080  0.20960  1.0000
  C   C2        1.0  0.38735  0.16400  0.36662  1.0000
  C   C3        1.0  0.31110  0.09258  0.21592  1.0000
  H   H2        1.0  0.31890  0.07550  0.14130  1.0000
  C   C4        1.0  0.20890  0.09736  0.38578  1.0000
  H   H3        1.0  0.14450  0.08350  0.43140  1.0000
  C   C5        1.0  0.29100  0.14288  0.43202  1.0000
  H   H4        1.0  0.28150  0.15930  0.50690  1.0000
  S   S2        1.0  0.50481  0.22555  0.58971  1.0000
  N   N2        1.0  0.78342  0.07184  0.72169  1.0000
  C   C6        1.0  0.60246  0.13793  0.74384  1.0000
  H   H5        1.0  0.53810  0.15080  0.79040  1.0000
  C   C7        1.0  0.61265  0.16400  0.63338  1.0000
  C   C8        1.0  0.68890  0.09258  0.78408  1.0000
  H   H6        1.0  0.68110  0.07550  0.85870  1.0000
  C   C9        1.0  0.79110  0.09736  0.61422  1.0000
  H   H7        1.0  0.85550  0.08350  0.56860  1.0000
  C   C10       1.0  0.70900  0.14288  0.56798  1.0000
  H   H8        1.0  0.71850  0.15930  0.49310  1.0000
  C   C11       1.0  0.75615  0.70341  0.79670  1.0000
  H   H9        1.0  0.77040  0.69460  0.71840  1.0000
  O   O1        1.0  0.95328  0.92777  0.14545  1.0000
  O   O2        1.0  0.87123  0.89741  0.31271  1.0000
  C   C12       1.0  0.65701  0.67609  0.97429  1.0000
  C   C13       1.0  0.78975  0.77016  0.96857  1.0000
  C   C14       1.0  0.82299  0.83676  0.14154  1.0000
  C   C15       1.0  0.74385  0.79659  0.20330  1.0000
  H   H10       1.0  0.72960  0.80540  0.28160  1.0000
  C   C16       1.0  0.81167  0.75484  0.85038  1.0000
  H   H11       1.0  0.86470  0.78020  0.80880  1.0000
  C   C17       1.0  0.84299  0.82391  0.02571  1.0000
  H   H12       1.0  0.89250  0.85110  0.98420  1.0000
  H   H13       1.0  0.60750  0.64890  0.01580  1.0000
  C   C18       1.0  0.68833  0.74516  0.14962  1.0000
  H   H14       1.0  0.63530  0.71980  0.19120  1.0000
  C   C19       1.0  0.61354  0.60855  0.79446  1.0000
  C   C20       1.0  0.88646  0.89145  0.20554  1.0000
  O   O3        1.0  0.54672  0.57223  0.85455  1.0000
  O   O4        1.0  0.62877  0.60259  0.68729  1.0000
  C   C21       1.0  0.71025  0.72984  0.03143  1.0000
  C   C22       1.0  0.67701  0.66324  0.85846  1.0000
  S   S3        1.0  0.99519  0.72555  0.41029  1.0000
  N   N3        1.0  0.71658  0.57184  0.27831  1.0000
  C   C23       1.0  0.89754  0.63793  0.25616  1.0000
  H   H15       1.0  0.96190  0.65080  0.20960  1.0000
  C   C24       1.0  0.88735  0.66400  0.36662  1.0000
  C   C25       1.0  0.81110  0.59258  0.21592  1.0000
  H   H16       1.0  0.81890  0.57550  0.14130  1.0000
  C   C26       1.0  0.70890  0.59736  0.38578  1.0000
  H   H17       1.0  0.64450  0.58350  0.43140  1.0000
  C   C27       1.0  0.79100  0.64288  0.43202  1.0000
  H   H18       1.0  0.78150  0.65930  0.50690  1.0000
  S   S4        1.0  0.00481  0.72555  0.58971  1.0000
  N   N4        1.0  0.28342  0.57184  0.72169  1.0000
  C   C28       1.0  0.10246  0.63793  0.74384  1.0000
  H   H19       1.0  0.03810  0.65080  0.79040  1.0000
  C   C29       1.0  0.11265  0.66400  0.63338  1.0000
  C   C30       1.0  0.18890  0.59258  0.78408  1.0000
  H   H20       1.0  0.18110  0.57550  0.85870  1.0000
  C   C31       1.0  0.29110  0.59736  0.61422  1.0000
  H   H21       1.0  0.35550  0.58350  0.56860  1.0000
  C   C32       1.0  0.20900  0.64288  0.56798  1.0000
  H   H22       1.0  0.21850  0.65930  0.49310  1.0000
  O   O5        1.0  0.45328  0.42777  0.14545  1.0000
  O   O6        1.0  0.37123  0.39741  0.31271  1.0000
  C   C33       1.0  0.28975  0.27016  0.96857  1.0000
  C   C34       1.0  0.32299  0.33676  0.14154  1.0000
  C   C35       1.0  0.24385  0.29659  0.20330  1.0000
  H   H23       1.0  0.22960  0.30540  0.28160  1.0000
  C   C36       1.0  0.34299  0.32391  0.02571  1.0000
  H   H24       1.0  0.39250  0.35110  0.98420  1.0000
  C   C37       1.0  0.18833  0.24516  0.14962  1.0000
  H   H25       1.0  0.13530  0.21980  0.19120  1.0000
  C   C38       1.0  0.38646  0.39145  0.20554  1.0000
  O   O7        1.0  0.04672  0.07223  0.85455  1.0000
  O   O8        1.0  0.12877  0.10259  0.68729  1.0000
  C   C39       1.0  0.21025  0.22984  0.03143  1.0000
  C   C40       1.0  0.17701  0.16324  0.85846  1.0000
  C   C41       1.0  0.25615  0.20341  0.79670  1.0000
  H   H26       1.0  0.27040  0.19460  0.71840  1.0000
  C   C42       1.0  0.15701  0.17609  0.97429  1.0000
  H   H27       1.0  0.10750  0.14890  0.01580  1.0000
  C   C43       1.0  0.31167  0.25484  0.85038  1.0000
  H   H28       1.0  0.36470  0.28020  0.80880  1.0000
  C   C44       1.0  0.11354  0.10855  0.79446  1.0000
  O   O9        1.0  0.45328  0.57223  0.14545  1.0000
  O   O10       1.0  0.37123  0.60259  0.31271  1.0000
  C   C45       1.0  0.28975  0.72984  0.96857  1.0000
  C   C46       1.0  0.32299  0.66324  0.14154  1.0000
  C   C47       1.0  0.24385  0.70341  0.20330  1.0000
  H   H29       1.0  0.22960  0.69460  0.28160  1.0000
  O   O11       1.0  0.04672  0.92777  0.85455  1.0000
  O   O12       1.0  0.12877  0.89741  0.68729  1.0000
  C   C48       1.0  0.34299  0.67609  0.02571  1.0000
  C   C49       1.0  0.21025  0.77016  0.03143  1.0000
  C   C50       1.0  0.17701  0.83676  0.85846  1.0000
  H   H30       1.0  0.13530  0.78020  0.19120  1.0000
  C   C51       1.0  0.25615  0.79659  0.79670  1.0000
  H   H31       1.0  0.27040  0.80540  0.71840  1.0000
  H   H32       1.0  0.39250  0.64890  0.98420  1.0000
  C   C52       1.0  0.15701  0.82391  0.97429  1.0000
  H   H33       1.0  0.10750  0.85110  0.01580  1.0000
  C   C53       1.0  0.18833  0.75484  0.14962  1.0000
  C   C54       1.0  0.31167  0.74516  0.85038  1.0000
  H   H34       1.0  0.36470  0.71980  0.80880  1.0000
  C   C55       1.0  0.38646  0.60855  0.20554  1.0000
  C   C56       1.0  0.11354  0.89145  0.79446  1.0000
  O   O13       1.0  0.95328  0.07223  0.14545  1.0000
  O   O14       1.0  0.87123  0.10259  0.31271  1.0000
  C   C57       1.0  0.78975  0.22984  0.96857  1.0000
  C   C58       1.0  0.82299  0.16324  0.14154  1.0000
  C   C59       1.0  0.74385  0.20341  0.20330  1.0000
  H   H35       1.0  0.72960  0.19460  0.28160  1.0000
  C   C60       1.0  0.84299  0.17609  0.02571  1.0000
  H   H36       1.0  0.89250  0.14890  0.98420  1.0000
  C   C61       1.0  0.68833  0.25484  0.14962  1.0000
  H   H37       1.0  0.63530  0.28020  0.19120  1.0000
  C   C62       1.0  0.88646  0.10855  0.20554  1.0000
  O   O15       1.0  0.54672  0.42777  0.85455  1.0000
  O   O16       1.0  0.62877  0.39741  0.68729  1.0000
  C   C63       1.0  0.71025  0.27016  0.03143  1.0000
  C   C64       1.0  0.67701  0.33676  0.85846  1.0000
  C   C65       1.0  0.75615  0.29659  0.79670  1.0000
  H   H38       1.0  0.77040  0.30540  0.71840  1.0000
  C   C66       1.0  0.65701  0.32391  0.97429  1.0000
  H   H39       1.0  0.60750  0.35110  0.01580  1.0000
  C   C67       1.0  0.81167  0.24516  0.85038  1.0000
  H   H40       1.0  0.86470  0.21980  0.80880  1.0000
  C   C68       1.0  0.61354  0.39145  0.79446  1.0000
  S   S5        1.0  0.49519  0.77445  0.41029  1.0000
  N   N5        1.0  0.21658  0.92816  0.27831  1.0000
  C   C69       1.0  0.39754  0.86207  0.25616  1.0000
  H   H41       1.0  0.46190  0.84920  0.20960  1.0000
  C   C70       1.0  0.38735  0.83600  0.36662  1.0000
  C   C71       1.0  0.31110  0.90742  0.21592  1.0000
  H   H42       1.0  0.31890  0.92450  0.14130  1.0000
  C   C72       1.0  0.20890  0.90264  0.38578  1.0000
  H   H43       1.0  0.14450  0.91650  0.43140  1.0000
  C   C73       1.0  0.29100  0.85712  0.43202  1.0000
  H   H44       1.0  0.28150  0.84070  0.50690  1.0000
  S   S6        1.0  0.50481  0.77445  0.58971  1.0000
  N   N6        1.0  0.78342  0.92816  0.72169  1.0000
  C   C74       1.0  0.60246  0.86207  0.74384  1.0000
  H   H45       1.0  0.53810  0.84920  0.79040  1.0000
  C   C75       1.0  0.61265  0.83600  0.63338  1.0000
  C   C76       1.0  0.68890  0.90742  0.78408  1.0000
  H   H46       1.0  0.68110  0.92450  0.85870  1.0000
  C   C77       1.0  0.79110  0.90264  0.61422  1.0000
  H   H47       1.0  0.85550  0.91650  0.56860  1.0000
  C   C78       1.0  0.70900  0.85712  0.56798  1.0000
  H   H48       1.0  0.71850  0.84070  0.49310  1.0000
  C   C79       1.0  0.10246  0.36207  0.74384  1.0000
  H   H49       1.0  0.03810  0.34920  0.79040  1.0000
  C   C80       1.0  0.11265  0.33600  0.63338  1.0000
  C   C81       1.0  0.18890  0.40742  0.78408  1.0000
  H   H50       1.0  0.18110  0.42450  0.85870  1.0000
  C   C82       1.0  0.29110  0.40264  0.61422  1.0000
  H   H51       1.0  0.35550  0.41650  0.56860  1.0000
  C   C83       1.0  0.20900  0.35712  0.56798  1.0000
  H   H52       1.0  0.21850  0.34070  0.49310  1.0000
  S   S7        1.0  0.99519  0.27445  0.41029  1.0000
  N   N7        1.0  0.71658  0.42816  0.27831  1.0000
  C   C84       1.0  0.89754  0.36207  0.25616  1.0000
  H   H53       1.0  0.96190  0.34920  0.20960  1.0000
  C   C85       1.0  0.88735  0.33600  0.36662  1.0000
  C   C86       1.0  0.81110  0.40742  0.21592  1.0000
  H   H54       1.0  0.81890  0.42450  0.14130  1.0000
  C   C87       1.0  0.70890  0.40264  0.38578  1.0000
  H   H55       1.0  0.64450  0.41650  0.43140  1.0000
  C   C88       1.0  0.79100  0.35712  0.43202  1.0000
  H   H56       1.0  0.78150  0.34070  0.50690  1.0000
  S   S8        1.0  0.00481  0.27445  0.58971  1.0000
  N   N8        1.0  0.28342  0.42816  0.72169  1.0000
  Co  Co1       1.0  0.08125  0.00000  0.21301  1.0000
  Co  Co2       1.0  0.41875  0.50000  0.78699  1.0000
  Co  Co3       1.0  0.58125  0.50000  0.21301  1.0000
  Co  Co4       1.0  0.91875  0.00000  0.78699  1.0000
