data_image0
_chemical_formula_structural       O2C2HC2HCHCHC3HNC3NC2O3C2HC2HOCHCO2C2HC2HC2HCHC3HC2HC5HC2HCHC3HCH2C2HNCO2C2HC2HNC2HCHC2HC2OC2HC2HOCHCO2C2HC2HC2HCHC3HC2O2C3HCHC2HCHC3HCHC3HC2HCHCO2C2HC2HC2HCHC3HCNC3HC2HCNC6HC2HOHC3O2C2HC2H2CHCHC3HCHO3C3HC3HCHNC2NC2O4C2HC2HCHCHC3HCHO2C2HC2HC2HCHC3HC5H2CHC2HCO2C2HC2HO2C2HC2HCHCHC3HCHCNC4NC2HO2C2HC2HCHCO2C2HC2HC2HCHC3HCO2C2HC2HCHCHC3HCHCHC2NC2HO2CO2C2HC2HCHCHC3HNC7H2C3O2C2HC2HC2HCHC3HC4H3O2C2HC2HC2H2O2C2HC2HC2HCO2C2HC2HC2HCHC3HCHOC2HC2HNC3HC7NHO2C2HC2HC2HCHC3HCOHC2HCHCO2C2HC2HC2HCHC3HCHCNC2NC3O2C2HC2H2CHCHC3HC2O2C2HC2HCHCHC3HCO2C6HC2HCHO2C2HC2HCHCHC3HCNC2NC2O2C2HC2HCHCO2C2HC2HC2HCHC3HCO2HCHC2HC2HCO2C2HC2HCHCHC3HCH2C3HO2C2HC2HCHCHC3HNC5NCHC4O2C2HC2HC2HCHC3HCO2CHO2C2HC2HCHCO2C2HC2HC2HCHC3HCO2C2HC2HCHCHC3NC3HNC3HCO2C2HC2HC2HCHC3HCHCHCHCHC3HC2HC3HCHC4O2C2HC2HC2HCHC3HCOCOHCO2NC2NC3HC3HC3HCH3O2C2HCIn8O8In16
_chemical_formula_sum              "O104 C528 H240 N24 In24"
_cell_length_a       36.5584
_cell_length_b       36.5584
_cell_length_c       36.5584
_cell_angle_alpha    90
_cell_angle_beta     90
_cell_angle_gamma    90

_space_group_name_H-M_alt    "P 1"
_space_group_IT_number       1

loop_
  _space_group_symop_operation_xyz
  'x, y, z'

loop_
  _atom_site_type_symbol
  _atom_site_label
  _atom_site_symmetry_multiplicity
  _atom_site_fract_x
  _atom_site_fract_y
  _atom_site_fract_z
  _atom_site_occupancy
  O   O1        1.0  0.25581  0.25027  0.16611  1.0000
  O   O2        1.0  0.28712  0.20437  0.19157  1.0000
  C   C1        1.0  0.27070  0.21943  0.16587  1.0000
  C   C2        1.0  0.25409  0.21240  0.09974  1.0000
  H   H1        1.0  0.24440  0.23590  0.10030  1.0000
  C   C3        1.0  0.26888  0.19879  0.13031  1.0000
  C   C4        1.0  0.26370  0.09876  0.03225  1.0000
  H   H2        1.0  0.26290  0.08650  0.05450  1.0000
  C   C5        1.0  0.28403  0.16390  0.12853  1.0000
  H   H3        1.0  0.29540  0.15400  0.14900  1.0000
  C   C6        1.0  0.25264  0.19307  0.06729  1.0000
  H   H4        1.0  0.24220  0.20350  0.04650  1.0000
  C   C7        1.0  0.26670  0.15849  0.06607  1.0000
  C   C8        1.0  0.26550  0.13669  0.03126  1.0000
  C   C9        1.0  0.28240  0.14416  0.09723  1.0000
  H   H5        1.0  0.29200  0.12060  0.09670  1.0000
  N   N1        1.0  0.26590  0.15566  0.00000  1.0000
  C   C10       1.0  0.26330  0.07965  0.00000  1.0000
  C   C11       1.0  0.26220  0.03922  0.00000  1.0000
  C   C12       1.0  0.26100  0.02018  0.02861  1.0000
  N   N2        1.0  0.26590  0.84434  0.00000  1.0000
  C   C13       1.0  0.26220  0.96078  0.00000  1.0000
  C   C14       1.0  0.26330  0.92035  0.00000  1.0000
  O   O3        1.0  0.25581  0.74973  0.16611  1.0000
  O   O4        1.0  0.25581  0.74973  0.83389  1.0000
  O   O5        1.0  0.28712  0.79563  0.80843  1.0000
  C   C15       1.0  0.27070  0.78057  0.83413  1.0000
  C   C16       1.0  0.25409  0.78760  0.90026  1.0000
  H   H6        1.0  0.24440  0.76410  0.89970  1.0000
  C   C17       1.0  0.26888  0.80121  0.86969  1.0000
  C   C18       1.0  0.26370  0.90124  0.96775  1.0000
  H   H7        1.0  0.26290  0.91350  0.94550  1.0000
  O   O6        1.0  0.28712  0.79563  0.19157  1.0000
  C   C19       1.0  0.28403  0.83610  0.87147  1.0000
  H   H8        1.0  0.29540  0.84600  0.85100  1.0000
  C   C20       1.0  0.25264  0.80693  0.93271  1.0000
  O   O7        1.0  0.25581  0.25027  0.83389  1.0000
  O   O8        1.0  0.28712  0.20437  0.80843  1.0000
  C   C21       1.0  0.27070  0.21943  0.83413  1.0000
  C   C22       1.0  0.25409  0.21240  0.90026  1.0000
  H   H9        1.0  0.24440  0.23590  0.89970  1.0000
  C   C23       1.0  0.26100  0.97982  0.97139  1.0000
  C   C24       1.0  0.26370  0.09876  0.96775  1.0000
  H   H10       1.0  0.26290  0.08650  0.94550  1.0000
  C   C25       1.0  0.26888  0.19879  0.86969  1.0000
  C   C26       1.0  0.28403  0.16390  0.87147  1.0000
  H   H11       1.0  0.29540  0.15400  0.85100  1.0000
  C   C27       1.0  0.25264  0.19307  0.93271  1.0000
  H   H12       1.0  0.24220  0.20350  0.95350  1.0000
  C   C28       1.0  0.26670  0.15849  0.93393  1.0000
  C   C29       1.0  0.26550  0.13669  0.96874  1.0000
  C   C30       1.0  0.28240  0.14416  0.90277  1.0000
  H   H13       1.0  0.29200  0.12060  0.90330  1.0000
  C   C31       1.0  0.26100  0.02018  0.97139  1.0000
  C   C32       1.0  0.26670  0.84151  0.93393  1.0000
  H   H14       1.0  0.24220  0.79650  0.95350  1.0000
  C   C33       1.0  0.27070  0.78057  0.16587  1.0000
  C   C34       1.0  0.26550  0.86331  0.96874  1.0000
  C   C35       1.0  0.25409  0.78760  0.09974  1.0000
  C   C36       1.0  0.26888  0.80121  0.13031  1.0000
  C   C37       1.0  0.26370  0.90124  0.03225  1.0000
  H   H15       1.0  0.26290  0.91350  0.05450  1.0000
  C   C38       1.0  0.28240  0.85584  0.90277  1.0000
  C   C39       1.0  0.28403  0.83610  0.12853  1.0000
  H   H16       1.0  0.24440  0.76410  0.10030  1.0000
  C   C40       1.0  0.25264  0.80693  0.06729  1.0000
  H   H17       1.0  0.24220  0.79650  0.04650  1.0000
  C   C41       1.0  0.26670  0.84151  0.06607  1.0000
  C   C42       1.0  0.26550  0.86331  0.03126  1.0000
  C   C43       1.0  0.28240  0.85584  0.09723  1.0000
  H   H18       1.0  0.29200  0.87940  0.90330  1.0000
  C   C44       1.0  0.26100  0.97982  0.02861  1.0000
  H   H19       1.0  0.29200  0.87940  0.09670  1.0000
  H   H20       1.0  0.29540  0.84600  0.14900  1.0000
  C   C45       1.0  0.73780  0.96078  0.00000  1.0000
  C   C46       1.0  0.71760  0.14416  0.90277  1.0000
  H   H21       1.0  0.70800  0.12060  0.90330  1.0000
  N   N3        1.0  0.73410  0.15566  0.00000  1.0000
  C   C47       1.0  0.73780  0.03922  0.00000  1.0000
  O   O9        1.0  0.74419  0.74973  0.16611  1.0000
  O   O10       1.0  0.71288  0.79563  0.19157  1.0000
  C   C48       1.0  0.72930  0.78057  0.16587  1.0000
  C   C49       1.0  0.74591  0.78760  0.09974  1.0000
  H   H22       1.0  0.75560  0.76410  0.10030  1.0000
  C   C50       1.0  0.73112  0.80121  0.13031  1.0000
  C   C51       1.0  0.73630  0.90124  0.03225  1.0000
  H   H23       1.0  0.73710  0.91350  0.05450  1.0000
  N   N4        1.0  0.73410  0.84434  0.00000  1.0000
  C   C52       1.0  0.73670  0.92035  0.00000  1.0000
  C   C53       1.0  0.71597  0.83610  0.12853  1.0000
  H   H24       1.0  0.70460  0.84600  0.14900  1.0000
  C   C54       1.0  0.74736  0.80693  0.06729  1.0000
  H   H25       1.0  0.75780  0.79650  0.04650  1.0000
  C   C55       1.0  0.73450  0.86331  0.03126  1.0000
  C   C56       1.0  0.71760  0.85584  0.09723  1.0000
  H   H26       1.0  0.70800  0.87940  0.09670  1.0000
  C   C57       1.0  0.73330  0.84151  0.06607  1.0000
  C   C58       1.0  0.73900  0.97982  0.02861  1.0000
  O   O11       1.0  0.74419  0.25027  0.83389  1.0000
  C   C59       1.0  0.72930  0.21943  0.83413  1.0000
  C   C60       1.0  0.74591  0.21240  0.90026  1.0000
  H   H27       1.0  0.75560  0.23590  0.89970  1.0000
  C   C61       1.0  0.73112  0.19879  0.86969  1.0000
  C   C62       1.0  0.73630  0.09876  0.96775  1.0000
  H   H28       1.0  0.73710  0.08650  0.94550  1.0000
  O   O12       1.0  0.71288  0.20437  0.80843  1.0000
  C   C63       1.0  0.71597  0.16390  0.87147  1.0000
  H   H29       1.0  0.70460  0.15400  0.85100  1.0000
  C   C64       1.0  0.74736  0.19307  0.93271  1.0000
  O   O13       1.0  0.74419  0.74973  0.83389  1.0000
  O   O14       1.0  0.71288  0.79563  0.80843  1.0000
  C   C65       1.0  0.72930  0.78057  0.83413  1.0000
  C   C66       1.0  0.74591  0.78760  0.90026  1.0000
  H   H30       1.0  0.75560  0.76410  0.89970  1.0000
  C   C67       1.0  0.73900  0.02018  0.97139  1.0000
  C   C68       1.0  0.73630  0.90124  0.96775  1.0000
  H   H31       1.0  0.73710  0.91350  0.94550  1.0000
  C   C69       1.0  0.73112  0.80121  0.86969  1.0000
  C   C70       1.0  0.71597  0.83610  0.87147  1.0000
  H   H32       1.0  0.70460  0.84600  0.85100  1.0000
  C   C71       1.0  0.74736  0.80693  0.93271  1.0000
  H   H33       1.0  0.75780  0.79650  0.95350  1.0000
  C   C72       1.0  0.73330  0.84151  0.93393  1.0000
  C   C73       1.0  0.73450  0.86331  0.96874  1.0000
  C   C74       1.0  0.71760  0.85584  0.90277  1.0000
  H   H34       1.0  0.70800  0.87940  0.90330  1.0000
  C   C75       1.0  0.73900  0.97982  0.97139  1.0000
  C   C76       1.0  0.73330  0.15849  0.93393  1.0000
  O   O15       1.0  0.74419  0.25027  0.16611  1.0000
  O   O16       1.0  0.71288  0.20437  0.19157  1.0000
  C   C77       1.0  0.72930  0.21943  0.16587  1.0000
  C   C78       1.0  0.74591  0.21240  0.09974  1.0000
  C   C79       1.0  0.73670  0.07965  0.00000  1.0000
  H   H35       1.0  0.75560  0.23590  0.10030  1.0000
  C   C80       1.0  0.73630  0.09876  0.03225  1.0000
  H   H36       1.0  0.73710  0.08650  0.05450  1.0000
  C   C81       1.0  0.73112  0.19879  0.13031  1.0000
  C   C82       1.0  0.71597  0.16390  0.12853  1.0000
  H   H37       1.0  0.70460  0.15400  0.14900  1.0000
  C   C83       1.0  0.74736  0.19307  0.06729  1.0000
  H   H38       1.0  0.75780  0.20350  0.95350  1.0000
  C   C84       1.0  0.73330  0.15849  0.06607  1.0000
  C   C85       1.0  0.73450  0.13669  0.03126  1.0000
  C   C86       1.0  0.71760  0.14416  0.09723  1.0000
  H   H39       1.0  0.75780  0.20350  0.04650  1.0000
  C   C87       1.0  0.73900  0.02018  0.02861  1.0000
  H   H40       1.0  0.70800  0.12060  0.09670  1.0000
  C   C88       1.0  0.73450  0.13669  0.96874  1.0000
  C   C89       1.0  0.83413  0.27070  0.78057  1.0000
  C   C90       1.0  0.90026  0.25409  0.78760  1.0000
  H   H41       1.0  0.89970  0.24440  0.76410  1.0000
  C   C91       1.0  0.86969  0.26888  0.80121  1.0000
  C   C92       1.0  0.96775  0.26370  0.90124  1.0000
  H   H42       1.0  0.94550  0.26290  0.91350  1.0000
  C   C93       1.0  0.87147  0.28403  0.83610  1.0000
  H   H43       1.0  0.85100  0.29540  0.84600  1.0000
  C   C94       1.0  0.93271  0.25264  0.80693  1.0000
  O   O17       1.0  0.83389  0.25581  0.25027  1.0000
  O   O18       1.0  0.80843  0.28712  0.20437  1.0000
  C   C95       1.0  0.83413  0.27070  0.21943  1.0000
  C   C96       1.0  0.90026  0.25409  0.21240  1.0000
  H   H44       1.0  0.89970  0.24440  0.23590  1.0000
  C   C97       1.0  0.97139  0.26100  0.97982  1.0000
  C   C98       1.0  0.96775  0.26370  0.09876  1.0000
  H   H45       1.0  0.94550  0.26290  0.08650  1.0000
  C   C99       1.0  0.86969  0.26888  0.19879  1.0000
  C   C100      1.0  0.87147  0.28403  0.16390  1.0000
  H   H46       1.0  0.85100  0.29540  0.15400  1.0000
  C   C101      1.0  0.93271  0.25264  0.19307  1.0000
  H   H47       1.0  0.95350  0.24220  0.20350  1.0000
  C   C102      1.0  0.93393  0.26670  0.15849  1.0000
  C   C103      1.0  0.96874  0.26550  0.13669  1.0000
  C   C104      1.0  0.90277  0.28240  0.14416  1.0000
  H   H48       1.0  0.90330  0.29200  0.12060  1.0000
  C   C105      1.0  0.97139  0.26100  0.02018  1.0000
  N   N5        1.0  0.00000  0.26590  0.15566  1.0000
  C   C106      1.0  0.00000  0.26220  0.03922  1.0000
  C   C107      1.0  0.00000  0.26330  0.07965  1.0000
  C   C108      1.0  0.09974  0.25409  0.78760  1.0000
  H   H49       1.0  0.10030  0.24440  0.76410  1.0000
  C   C109      1.0  0.13031  0.26888  0.80121  1.0000
  C   C110      1.0  0.03225  0.26370  0.90124  1.0000
  H   H50       1.0  0.05450  0.26290  0.91350  1.0000
  C   C111      1.0  0.16587  0.27070  0.78057  1.0000
  N   N6        1.0  0.00000  0.26590  0.84434  1.0000
  C   C112      1.0  0.00000  0.26220  0.96078  1.0000
  C   C113      1.0  0.00000  0.26330  0.92035  1.0000
  C   C114      1.0  0.06729  0.25264  0.80693  1.0000
  C   C115      1.0  0.06607  0.26670  0.84151  1.0000
  C   C116      1.0  0.03126  0.26550  0.86331  1.0000
  C   C117      1.0  0.09723  0.28240  0.85584  1.0000
  H   H51       1.0  0.04650  0.24220  0.79650  1.0000
  C   C118      1.0  0.02861  0.26100  0.97982  1.0000
  C   C119      1.0  0.12853  0.28403  0.83610  1.0000
  H   H52       1.0  0.09670  0.29200  0.87940  1.0000
  O   O19       1.0  0.19157  0.28712  0.79563  1.0000
  H   H53       1.0  0.95350  0.24220  0.79650  1.0000
  C   C120      1.0  0.93393  0.26670  0.84151  1.0000
  C   C121      1.0  0.96874  0.26550  0.86331  1.0000
  C   C122      1.0  0.90277  0.28240  0.85584  1.0000
  O   O20       1.0  0.16611  0.25581  0.25027  1.0000
  O   O21       1.0  0.19157  0.28712  0.20437  1.0000
  C   C123      1.0  0.16587  0.27070  0.21943  1.0000
  C   C124      1.0  0.09974  0.25409  0.21240  1.0000
  H   H54       1.0  0.10030  0.24440  0.23590  1.0000
  C   C125      1.0  0.13031  0.26888  0.19879  1.0000
  C   C126      1.0  0.03225  0.26370  0.09876  1.0000
  H   H55       1.0  0.05450  0.26290  0.08650  1.0000
  H   H56       1.0  0.90330  0.29200  0.87940  1.0000
  C   C127      1.0  0.12853  0.28403  0.16390  1.0000
  H   H57       1.0  0.14900  0.29540  0.15400  1.0000
  C   C128      1.0  0.06729  0.25264  0.19307  1.0000
  H   H58       1.0  0.04650  0.24220  0.20350  1.0000
  C   C129      1.0  0.06607  0.26670  0.15849  1.0000
  C   C130      1.0  0.03126  0.26550  0.13669  1.0000
  C   C131      1.0  0.09723  0.28240  0.14416  1.0000
  H   H59       1.0  0.09670  0.29200  0.12060  1.0000
  C   C132      1.0  0.02861  0.26100  0.02018  1.0000
  H   H60       1.0  0.14900  0.29540  0.84600  1.0000
  O   O22       1.0  0.16611  0.25581  0.74973  1.0000
  O   O23       1.0  0.83389  0.25581  0.74973  1.0000
  O   O24       1.0  0.80843  0.28712  0.79563  1.0000
  C   C133      1.0  0.87147  0.71597  0.83610  1.0000
  C   C134      1.0  0.86969  0.73112  0.80121  1.0000
  C   C135      1.0  0.93271  0.74736  0.80693  1.0000
  H   H61       1.0  0.95350  0.75780  0.79650  1.0000
  C   C136      1.0  0.93393  0.73330  0.84151  1.0000
  C   C137      1.0  0.96874  0.73450  0.86331  1.0000
  C   C138      1.0  0.90277  0.71760  0.85584  1.0000
  H   H62       1.0  0.90330  0.70800  0.87940  1.0000
  C   C139      1.0  0.97139  0.73900  0.97982  1.0000
  H   H63       1.0  0.85100  0.70460  0.84600  1.0000
  N   N7        1.0  0.00000  0.73410  0.84434  1.0000
  C   C140      1.0  0.00000  0.73780  0.96078  1.0000
  C   C141      1.0  0.00000  0.73670  0.92035  1.0000
  N   N8        1.0  0.00000  0.73410  0.15566  1.0000
  C   C142      1.0  0.00000  0.73780  0.03922  1.0000
  C   C143      1.0  0.00000  0.73670  0.07965  1.0000
  O   O25       1.0  0.83389  0.74419  0.25027  1.0000
  O   O26       1.0  0.80843  0.71288  0.20437  1.0000
  O   O27       1.0  0.16611  0.74419  0.25027  1.0000
  O   O28       1.0  0.19157  0.71288  0.20437  1.0000
  C   C144      1.0  0.16587  0.72930  0.21943  1.0000
  C   C145      1.0  0.09974  0.74591  0.21240  1.0000
  H   H64       1.0  0.10030  0.75560  0.23590  1.0000
  C   C146      1.0  0.13031  0.73112  0.19879  1.0000
  C   C147      1.0  0.03225  0.73630  0.09876  1.0000
  H   H65       1.0  0.05450  0.73710  0.08650  1.0000
  C   C148      1.0  0.12853  0.71597  0.16390  1.0000
  H   H66       1.0  0.14900  0.70460  0.15400  1.0000
  C   C149      1.0  0.06729  0.74736  0.19307  1.0000
  H   H67       1.0  0.04650  0.75780  0.20350  1.0000
  C   C150      1.0  0.06607  0.73330  0.15849  1.0000
  C   C151      1.0  0.03126  0.73450  0.13669  1.0000
  C   C152      1.0  0.09723  0.71760  0.14416  1.0000
  H   H68       1.0  0.09670  0.70800  0.12060  1.0000
  C   C153      1.0  0.02861  0.73900  0.02018  1.0000
  H   H69       1.0  0.95350  0.75780  0.20350  1.0000
  O   O29       1.0  0.16611  0.74419  0.74973  1.0000
  O   O30       1.0  0.19157  0.71288  0.79563  1.0000
  C   C154      1.0  0.16587  0.72930  0.78057  1.0000
  C   C155      1.0  0.09974  0.74591  0.78760  1.0000
  H   H70       1.0  0.10030  0.75560  0.76410  1.0000
  C   C156      1.0  0.13031  0.73112  0.80121  1.0000
  C   C157      1.0  0.03225  0.73630  0.90124  1.0000
  H   H71       1.0  0.05450  0.73710  0.91350  1.0000
  C   C158      1.0  0.93393  0.73330  0.15849  1.0000
  C   C159      1.0  0.12853  0.71597  0.83610  1.0000
  H   H72       1.0  0.14900  0.70460  0.84600  1.0000
  C   C160      1.0  0.06729  0.74736  0.80693  1.0000
  H   H73       1.0  0.04650  0.75780  0.79650  1.0000
  C   C161      1.0  0.06607  0.73330  0.84151  1.0000
  C   C162      1.0  0.03126  0.73450  0.86331  1.0000
  C   C163      1.0  0.09723  0.71760  0.85584  1.0000
  H   H74       1.0  0.09670  0.70800  0.87940  1.0000
  C   C164      1.0  0.02861  0.73900  0.97982  1.0000
  C   C165      1.0  0.96874  0.73450  0.13669  1.0000
  C   C166      1.0  0.90277  0.71760  0.14416  1.0000
  C   C167      1.0  0.83413  0.72930  0.21943  1.0000
  C   C168      1.0  0.90026  0.74591  0.21240  1.0000
  H   H75       1.0  0.90330  0.70800  0.12060  1.0000
  H   H76       1.0  0.89970  0.75560  0.23590  1.0000
  C   C169      1.0  0.96775  0.73630  0.09876  1.0000
  H   H77       1.0  0.94550  0.73710  0.08650  1.0000
  C   C170      1.0  0.86969  0.73112  0.19879  1.0000
  C   C171      1.0  0.87147  0.71597  0.16390  1.0000
  H   H78       1.0  0.85100  0.70460  0.15400  1.0000
  C   C172      1.0  0.93271  0.74736  0.19307  1.0000
  O   O31       1.0  0.83389  0.74419  0.74973  1.0000
  O   O32       1.0  0.80843  0.71288  0.79563  1.0000
  C   C173      1.0  0.83413  0.72930  0.78057  1.0000
  C   C174      1.0  0.90026  0.74591  0.78760  1.0000
  H   H79       1.0  0.89970  0.75560  0.76410  1.0000
  C   C175      1.0  0.97139  0.73900  0.02018  1.0000
  C   C176      1.0  0.96775  0.73630  0.90124  1.0000
  H   H80       1.0  0.94550  0.73710  0.91350  1.0000
  O   O33       1.0  0.25027  0.16611  0.25581  1.0000
  O   O34       1.0  0.20437  0.19157  0.28712  1.0000
  C   C177      1.0  0.21943  0.16587  0.27070  1.0000
  C   C178      1.0  0.21240  0.09974  0.25409  1.0000
  H   H81       1.0  0.23590  0.10030  0.24440  1.0000
  C   C179      1.0  0.19879  0.13031  0.26888  1.0000
  C   C180      1.0  0.09876  0.03225  0.26370  1.0000
  H   H82       1.0  0.08650  0.05450  0.26290  1.0000
  C   C181      1.0  0.16390  0.12853  0.28403  1.0000
  H   H83       1.0  0.15400  0.14900  0.29540  1.0000
  C   C182      1.0  0.19307  0.06729  0.25264  1.0000
  H   H84       1.0  0.20350  0.04650  0.24220  1.0000
  C   C183      1.0  0.15849  0.06607  0.26670  1.0000
  C   C184      1.0  0.13669  0.03126  0.26550  1.0000
  C   C185      1.0  0.14416  0.09723  0.28240  1.0000
  H   H85       1.0  0.12060  0.09670  0.29200  1.0000
  C   C186      1.0  0.02018  0.02861  0.26100  1.0000
  H   H86       1.0  0.79650  0.95350  0.24220  1.0000
  C   C187      1.0  0.84151  0.93393  0.26670  1.0000
  N   N9        1.0  0.15566  0.00000  0.26590  1.0000
  C   C188      1.0  0.03922  0.00000  0.26220  1.0000
  C   C189      1.0  0.07965  0.00000  0.26330  1.0000
  C   C190      1.0  0.86331  0.96874  0.26550  1.0000
  C   C191      1.0  0.85584  0.90277  0.28240  1.0000
  N   N10       1.0  0.84434  0.00000  0.26590  1.0000
  C   C192      1.0  0.96078  0.00000  0.26220  1.0000
  C   C193      1.0  0.92035  0.00000  0.26330  1.0000
  H   H87       1.0  0.87940  0.90330  0.29200  1.0000
  O   O35       1.0  0.74973  0.83389  0.25581  1.0000
  O   O36       1.0  0.79563  0.80843  0.28712  1.0000
  C   C194      1.0  0.78057  0.83413  0.27070  1.0000
  C   C195      1.0  0.78760  0.90026  0.25409  1.0000
  H   H88       1.0  0.76410  0.89970  0.24440  1.0000
  C   C196      1.0  0.80121  0.86969  0.26888  1.0000
  C   C197      1.0  0.90124  0.96775  0.26370  1.0000
  H   H89       1.0  0.91350  0.94550  0.26290  1.0000
  C   C198      1.0  0.83610  0.87147  0.28403  1.0000
  H   H90       1.0  0.84600  0.85100  0.29540  1.0000
  C   C199      1.0  0.80693  0.93271  0.25264  1.0000
  O   O37       1.0  0.25027  0.83389  0.25581  1.0000
  O   O38       1.0  0.20437  0.80843  0.28712  1.0000
  C   C200      1.0  0.21943  0.83413  0.27070  1.0000
  C   C201      1.0  0.21240  0.90026  0.25409  1.0000
  H   H91       1.0  0.23590  0.89970  0.24440  1.0000
  C   C202      1.0  0.97982  0.97139  0.26100  1.0000
  C   C203      1.0  0.09876  0.96775  0.26370  1.0000
  H   H92       1.0  0.08650  0.94550  0.26290  1.0000
  C   C204      1.0  0.19879  0.86969  0.26888  1.0000
  C   C205      1.0  0.16390  0.87147  0.28403  1.0000
  H   H93       1.0  0.15400  0.85100  0.29540  1.0000
  C   C206      1.0  0.19307  0.93271  0.25264  1.0000
  H   H94       1.0  0.20350  0.95350  0.24220  1.0000
  C   C207      1.0  0.15849  0.93393  0.26670  1.0000
  C   C208      1.0  0.13669  0.96874  0.26550  1.0000
  C   C209      1.0  0.14416  0.90277  0.28240  1.0000
  H   H95       1.0  0.12060  0.90330  0.29200  1.0000
  C   C210      1.0  0.02018  0.97139  0.26100  1.0000
  O   O39       1.0  0.74973  0.16611  0.25581  1.0000
  O   O40       1.0  0.79563  0.19157  0.28712  1.0000
  C   C211      1.0  0.78057  0.16587  0.27070  1.0000
  C   C212      1.0  0.78760  0.09974  0.25409  1.0000
  H   H96       1.0  0.76410  0.10030  0.24440  1.0000
  C   C213      1.0  0.80121  0.13031  0.26888  1.0000
  C   C214      1.0  0.90124  0.03225  0.26370  1.0000
  H   H97       1.0  0.91350  0.05450  0.26290  1.0000
  C   C215      1.0  0.83610  0.12853  0.28403  1.0000
  H   H98       1.0  0.84600  0.14900  0.29540  1.0000
  C   C216      1.0  0.80693  0.06729  0.25264  1.0000
  H   H99       1.0  0.79650  0.04650  0.24220  1.0000
  C   C217      1.0  0.84151  0.06607  0.26670  1.0000
  C   C218      1.0  0.86331  0.03126  0.26550  1.0000
  C   C219      1.0  0.85584  0.09723  0.28240  1.0000
  H   H100      1.0  0.87940  0.09670  0.29200  1.0000
  C   C220      1.0  0.97982  0.02861  0.26100  1.0000
  H   H101      1.0  0.15400  0.14900  0.70460  1.0000
  C   C221      1.0  0.19307  0.06729  0.74736  1.0000
  H   H102      1.0  0.20350  0.04650  0.75780  1.0000
  C   C222      1.0  0.15849  0.06607  0.73330  1.0000
  C   C223      1.0  0.13669  0.03126  0.73450  1.0000
  N   N11       1.0  0.15566  0.00000  0.73410  1.0000
  C   C224      1.0  0.14416  0.09723  0.71760  1.0000
  C   C225      1.0  0.02018  0.02861  0.73900  1.0000
  H   H103      1.0  0.12060  0.09670  0.70800  1.0000
  O   O41       1.0  0.25027  0.83389  0.74419  1.0000
  O   O42       1.0  0.20437  0.80843  0.71288  1.0000
  C   C226      1.0  0.21943  0.83413  0.72930  1.0000
  O   O43       1.0  0.74973  0.16611  0.74419  1.0000
  O   O44       1.0  0.79563  0.19157  0.71288  1.0000
  C   C227      1.0  0.78057  0.16587  0.72930  1.0000
  C   C228      1.0  0.78760  0.09974  0.74591  1.0000
  H   H104      1.0  0.76410  0.10030  0.75560  1.0000
  C   C229      1.0  0.80121  0.13031  0.73112  1.0000
  C   C230      1.0  0.90124  0.03225  0.73630  1.0000
  H   H105      1.0  0.91350  0.05450  0.73710  1.0000
  C   C231      1.0  0.83610  0.12853  0.71597  1.0000
  H   H106      1.0  0.84600  0.14900  0.70460  1.0000
  C   C232      1.0  0.80693  0.06729  0.74736  1.0000
  H   H107      1.0  0.79650  0.04650  0.75780  1.0000
  C   C233      1.0  0.84151  0.06607  0.73330  1.0000
  C   C234      1.0  0.86331  0.03126  0.73450  1.0000
  C   C235      1.0  0.85584  0.09723  0.71760  1.0000
  H   H108      1.0  0.87940  0.09670  0.70800  1.0000
  N   N12       1.0  0.84434  0.00000  0.73410  1.0000
  C   C236      1.0  0.92035  0.00000  0.73670  1.0000
  C   C237      1.0  0.96078  0.00000  0.73780  1.0000
  C   C238      1.0  0.97982  0.02861  0.73900  1.0000
  C   C239      1.0  0.03922  0.00000  0.73780  1.0000
  C   C240      1.0  0.07965  0.00000  0.73670  1.0000
  C   C241      1.0  0.21240  0.90026  0.74591  1.0000
  C   C242      1.0  0.09876  0.96775  0.73630  1.0000
  H   H109      1.0  0.08650  0.94550  0.73710  1.0000
  H   H110      1.0  0.23590  0.89970  0.75560  1.0000
  C   C243      1.0  0.16390  0.87147  0.71597  1.0000
  C   C244      1.0  0.19879  0.86969  0.73112  1.0000
  C   C245      1.0  0.19307  0.93271  0.74736  1.0000
  O   O45       1.0  0.74973  0.83389  0.74419  1.0000
  O   O46       1.0  0.79563  0.80843  0.71288  1.0000
  C   C246      1.0  0.78057  0.83413  0.72930  1.0000
  C   C247      1.0  0.78760  0.90026  0.74591  1.0000
  H   H111      1.0  0.76410  0.89970  0.75560  1.0000
  C   C248      1.0  0.02018  0.97139  0.73900  1.0000
  C   C249      1.0  0.90124  0.96775  0.73630  1.0000
  H   H112      1.0  0.91350  0.94550  0.73710  1.0000
  C   C250      1.0  0.80121  0.86969  0.73112  1.0000
  C   C251      1.0  0.83610  0.87147  0.71597  1.0000
  H   H113      1.0  0.84600  0.85100  0.70460  1.0000
  C   C252      1.0  0.80693  0.93271  0.74736  1.0000
  H   H114      1.0  0.79650  0.95350  0.75780  1.0000
  C   C253      1.0  0.84151  0.93393  0.73330  1.0000
  C   C254      1.0  0.86331  0.96874  0.73450  1.0000
  C   C255      1.0  0.85584  0.90277  0.71760  1.0000
  H   H115      1.0  0.87940  0.90330  0.70800  1.0000
  C   C256      1.0  0.97982  0.97139  0.73900  1.0000
  C   C257      1.0  0.13669  0.96874  0.73450  1.0000
  C   C258      1.0  0.15849  0.93393  0.73330  1.0000
  C   C259      1.0  0.14416  0.90277  0.71760  1.0000
  H   H116      1.0  0.12060  0.90330  0.70800  1.0000
  H   H117      1.0  0.15400  0.85100  0.70460  1.0000
  H   H118      1.0  0.20350  0.95350  0.75780  1.0000
  O   O47       1.0  0.25027  0.16611  0.74419  1.0000
  O   O48       1.0  0.20437  0.19157  0.71288  1.0000
  C   C260      1.0  0.21943  0.16587  0.72930  1.0000
  C   C261      1.0  0.21240  0.09974  0.74591  1.0000
  H   H119      1.0  0.23590  0.10030  0.75560  1.0000
  C   C262      1.0  0.19879  0.13031  0.73112  1.0000
  C   C263      1.0  0.09876  0.03225  0.73630  1.0000
  H   H120      1.0  0.08650  0.05450  0.73710  1.0000
  C   C264      1.0  0.16390  0.12853  0.71597  1.0000
  C   C265      1.0  0.35584  0.78240  0.59723  1.0000
  H   H121      1.0  0.29650  0.74220  0.54650  1.0000
  H   H122      1.0  0.37940  0.79200  0.59670  1.0000
  O   O49       1.0  0.24973  0.75581  0.66611  1.0000
  O   O50       1.0  0.29563  0.78712  0.69157  1.0000
  C   C266      1.0  0.34151  0.76670  0.56607  1.0000
  C   C267      1.0  0.28760  0.75409  0.59974  1.0000
  H   H123      1.0  0.26410  0.74440  0.60030  1.0000
  C   C268      1.0  0.30121  0.76888  0.63031  1.0000
  C   C269      1.0  0.40124  0.76370  0.53225  1.0000
  H   H124      1.0  0.41350  0.76290  0.55450  1.0000
  C   C270      1.0  0.36331  0.76550  0.53126  1.0000
  C   C271      1.0  0.33610  0.78403  0.62853  1.0000
  H   H125      1.0  0.34600  0.79540  0.64900  1.0000
  C   C272      1.0  0.30693  0.75264  0.56729  1.0000
  O   O51       1.0  0.75027  0.75581  0.66611  1.0000
  O   O52       1.0  0.70437  0.78712  0.69157  1.0000
  C   C273      1.0  0.71943  0.77070  0.66587  1.0000
  C   C274      1.0  0.71240  0.75409  0.59974  1.0000
  H   H126      1.0  0.73590  0.74440  0.60030  1.0000
  C   C275      1.0  0.47982  0.76100  0.52861  1.0000
  C   C276      1.0  0.59876  0.76370  0.53225  1.0000
  H   H127      1.0  0.58650  0.76290  0.55450  1.0000
  C   C277      1.0  0.69879  0.76888  0.63031  1.0000
  C   C278      1.0  0.66390  0.78403  0.62853  1.0000
  H   H128      1.0  0.65400  0.79540  0.64900  1.0000
  C   C279      1.0  0.69307  0.75264  0.56729  1.0000
  H   H129      1.0  0.70350  0.74220  0.54650  1.0000
  C   C280      1.0  0.65849  0.76670  0.56607  1.0000
  C   C281      1.0  0.63669  0.76550  0.53126  1.0000
  C   C282      1.0  0.64416  0.78240  0.59723  1.0000
  H   H130      1.0  0.62060  0.79200  0.59670  1.0000
  C   C283      1.0  0.52018  0.76100  0.52861  1.0000
  H   H131      1.0  0.34600  0.79540  0.35100  1.0000
  O   O53       1.0  0.24973  0.75581  0.33389  1.0000
  C   C284      1.0  0.28057  0.77070  0.33413  1.0000
  C   C285      1.0  0.28760  0.75409  0.40026  1.0000
  H   H132      1.0  0.26410  0.74440  0.39970  1.0000
  C   C286      1.0  0.30121  0.76888  0.36969  1.0000
  C   C287      1.0  0.40124  0.76370  0.46775  1.0000
  H   H133      1.0  0.41350  0.76290  0.44550  1.0000
  N   N13       1.0  0.65566  0.76590  0.50000  1.0000
  C   C288      1.0  0.53922  0.76220  0.50000  1.0000
  C   C289      1.0  0.57965  0.76330  0.50000  1.0000
  C   C290      1.0  0.30693  0.75264  0.43271  1.0000
  H   H134      1.0  0.29650  0.74220  0.45350  1.0000
  C   C291      1.0  0.34151  0.76670  0.43393  1.0000
  C   C292      1.0  0.36331  0.76550  0.46874  1.0000
  C   C293      1.0  0.35584  0.78240  0.40277  1.0000
  C   C294      1.0  0.33610  0.78403  0.37147  1.0000
  C   C295      1.0  0.47982  0.76100  0.47139  1.0000
  C   C296      1.0  0.46078  0.76220  0.50000  1.0000
  C   C297      1.0  0.42035  0.76330  0.50000  1.0000
  N   N14       1.0  0.34434  0.76590  0.50000  1.0000
  H   H135      1.0  0.37940  0.79200  0.40330  1.0000
  O   O54       1.0  0.75027  0.75581  0.33389  1.0000
  O   O55       1.0  0.70437  0.78712  0.30843  1.0000
  C   C298      1.0  0.71943  0.77070  0.33413  1.0000
  C   C299      1.0  0.71240  0.75409  0.40026  1.0000
  H   H136      1.0  0.73590  0.74440  0.39970  1.0000
  C   C300      1.0  0.69879  0.76888  0.36969  1.0000
  C   C301      1.0  0.59876  0.76370  0.46775  1.0000
  H   H137      1.0  0.58650  0.76290  0.44550  1.0000
  C   C302      1.0  0.28057  0.77070  0.66587  1.0000
  C   C303      1.0  0.66390  0.78403  0.37147  1.0000
  H   H138      1.0  0.65400  0.79540  0.35100  1.0000
  C   C304      1.0  0.69307  0.75264  0.43271  1.0000
  H   H139      1.0  0.70350  0.74220  0.45350  1.0000
  C   C305      1.0  0.65849  0.76670  0.43393  1.0000
  C   C306      1.0  0.63669  0.76550  0.46874  1.0000
  C   C307      1.0  0.64416  0.78240  0.40277  1.0000
  H   H140      1.0  0.62060  0.79200  0.40330  1.0000
  C   C308      1.0  0.52018  0.76100  0.47139  1.0000
  O   O56       1.0  0.29563  0.78712  0.30843  1.0000
  H   H141      1.0  0.73590  0.25560  0.60030  1.0000
  C   C309      1.0  0.69879  0.23112  0.63031  1.0000
  C   C310      1.0  0.59876  0.23630  0.53225  1.0000
  H   H142      1.0  0.58650  0.23710  0.55450  1.0000
  C   C311      1.0  0.66390  0.21597  0.62853  1.0000
  H   H143      1.0  0.65400  0.20460  0.64900  1.0000
  C   C312      1.0  0.69307  0.24736  0.56729  1.0000
  O   O57       1.0  0.24973  0.24419  0.66611  1.0000
  O   O58       1.0  0.29563  0.21288  0.69157  1.0000
  C   C313      1.0  0.28057  0.22930  0.66587  1.0000
  C   C314      1.0  0.28760  0.24591  0.59974  1.0000
  H   H144      1.0  0.26410  0.25560  0.60030  1.0000
  C   C315      1.0  0.52018  0.23900  0.52861  1.0000
  C   C316      1.0  0.40124  0.23630  0.53225  1.0000
  H   H145      1.0  0.41350  0.23710  0.55450  1.0000
  C   C317      1.0  0.30121  0.23112  0.63031  1.0000
  C   C318      1.0  0.33610  0.21597  0.62853  1.0000
  H   H146      1.0  0.34600  0.20460  0.64900  1.0000
  C   C319      1.0  0.30693  0.24736  0.56729  1.0000
  H   H147      1.0  0.29650  0.25780  0.54650  1.0000
  C   C320      1.0  0.34151  0.23330  0.56607  1.0000
  C   C321      1.0  0.36331  0.23450  0.53126  1.0000
  C   C322      1.0  0.35584  0.21760  0.59723  1.0000
  H   H148      1.0  0.37940  0.20800  0.59670  1.0000
  C   C323      1.0  0.47982  0.23900  0.52861  1.0000
  H   H149      1.0  0.70350  0.25780  0.54650  1.0000
  C   C324      1.0  0.65849  0.23330  0.56607  1.0000
  N   N15       1.0  0.34434  0.23410  0.50000  1.0000
  C   C325      1.0  0.46078  0.23780  0.50000  1.0000
  C   C326      1.0  0.42035  0.23670  0.50000  1.0000
  N   N16       1.0  0.65566  0.23410  0.50000  1.0000
  C   C327      1.0  0.53922  0.23780  0.50000  1.0000
  C   C328      1.0  0.57965  0.23670  0.50000  1.0000
  C   C329      1.0  0.63669  0.23450  0.53126  1.0000
  O   O59       1.0  0.75027  0.24419  0.33389  1.0000
  O   O60       1.0  0.70437  0.21288  0.30843  1.0000
  C   C330      1.0  0.64416  0.21760  0.59723  1.0000
  C   C331      1.0  0.71240  0.24591  0.40026  1.0000
  H   H150      1.0  0.73590  0.25560  0.39970  1.0000
  C   C332      1.0  0.69879  0.23112  0.36969  1.0000
  C   C333      1.0  0.59876  0.23630  0.46775  1.0000
  H   H151      1.0  0.58650  0.23710  0.44550  1.0000
  H   H152      1.0  0.62060  0.20800  0.59670  1.0000
  C   C334      1.0  0.66390  0.21597  0.37147  1.0000
  H   H153      1.0  0.65400  0.20460  0.35100  1.0000
  C   C335      1.0  0.69307  0.24736  0.43271  1.0000
  H   H154      1.0  0.70350  0.25780  0.45350  1.0000
  C   C336      1.0  0.65849  0.23330  0.43393  1.0000
  C   C337      1.0  0.63669  0.23450  0.46874  1.0000
  C   C338      1.0  0.64416  0.21760  0.40277  1.0000
  H   H155      1.0  0.62060  0.20800  0.40330  1.0000
  C   C339      1.0  0.52018  0.23900  0.47139  1.0000
  C   C340      1.0  0.71943  0.22930  0.33413  1.0000
  O   O61       1.0  0.24973  0.24419  0.33389  1.0000
  O   O62       1.0  0.29563  0.21288  0.30843  1.0000
  C   C341      1.0  0.28057  0.22930  0.33413  1.0000
  C   C342      1.0  0.28760  0.24591  0.40026  1.0000
  H   H156      1.0  0.26410  0.25560  0.39970  1.0000
  C   C343      1.0  0.30121  0.23112  0.36969  1.0000
  C   C344      1.0  0.40124  0.23630  0.46775  1.0000
  H   H157      1.0  0.41350  0.23710  0.44550  1.0000
  C   C345      1.0  0.33610  0.21597  0.37147  1.0000
  H   H158      1.0  0.34600  0.20460  0.35100  1.0000
  C   C346      1.0  0.30693  0.24736  0.43271  1.0000
  H   H159      1.0  0.29650  0.25780  0.45350  1.0000
  C   C347      1.0  0.34151  0.23330  0.43393  1.0000
  C   C348      1.0  0.36331  0.23450  0.46874  1.0000
  C   C349      1.0  0.35584  0.21760  0.40277  1.0000
  H   H160      1.0  0.37940  0.20800  0.40330  1.0000
  C   C350      1.0  0.47982  0.23900  0.47139  1.0000
  O   O63       1.0  0.75027  0.24419  0.66611  1.0000
  O   O64       1.0  0.70437  0.21288  0.69157  1.0000
  C   C351      1.0  0.71943  0.22930  0.66587  1.0000
  C   C352      1.0  0.71240  0.24591  0.59974  1.0000
  C   C353      1.0  0.76550  0.46874  0.63669  1.0000
  C   C354      1.0  0.76670  0.56607  0.65849  1.0000
  C   C355      1.0  0.76550  0.53126  0.63669  1.0000
  C   C356      1.0  0.78240  0.59723  0.64416  1.0000
  H   H161      1.0  0.74220  0.54650  0.70350  1.0000
  C   C357      1.0  0.76100  0.52861  0.52018  1.0000
  C   C358      1.0  0.78240  0.40277  0.64416  1.0000
  H   H162      1.0  0.79200  0.59670  0.62060  1.0000
  C   C359      1.0  0.76670  0.43393  0.65849  1.0000
  H   H163      1.0  0.79200  0.40330  0.62060  1.0000
  O   O65       1.0  0.75581  0.66611  0.24973  1.0000
  O   O66       1.0  0.78712  0.69157  0.29563  1.0000
  C   C360      1.0  0.77070  0.66587  0.28057  1.0000
  C   C361      1.0  0.75409  0.59974  0.28760  1.0000
  H   H164      1.0  0.74440  0.60030  0.26410  1.0000
  C   C362      1.0  0.76888  0.63031  0.30121  1.0000
  C   C363      1.0  0.76370  0.53225  0.40124  1.0000
  H   H165      1.0  0.76290  0.55450  0.41350  1.0000
  C   C364      1.0  0.78403  0.62853  0.33610  1.0000
  H   H166      1.0  0.79540  0.64900  0.34600  1.0000
  C   C365      1.0  0.75264  0.56729  0.30693  1.0000
  H   H167      1.0  0.74220  0.54650  0.29650  1.0000
  C   C366      1.0  0.76670  0.56607  0.34151  1.0000
  C   C367      1.0  0.76550  0.53126  0.36331  1.0000
  C   C368      1.0  0.78240  0.59723  0.35584  1.0000
  H   H168      1.0  0.79200  0.59670  0.37940  1.0000
  C   C369      1.0  0.76100  0.52861  0.47982  1.0000
  N   N17       1.0  0.76590  0.50000  0.34434  1.0000
  C   C370      1.0  0.76220  0.50000  0.46078  1.0000
  C   C371      1.0  0.76330  0.50000  0.42035  1.0000
  N   N18       1.0  0.76590  0.50000  0.65566  1.0000
  C   C372      1.0  0.76220  0.50000  0.53922  1.0000
  C   C373      1.0  0.76330  0.50000  0.57965  1.0000
  O   O67       1.0  0.75581  0.33389  0.75027  1.0000
  O   O68       1.0  0.78712  0.30843  0.70437  1.0000
  C   C374      1.0  0.77070  0.33413  0.71943  1.0000
  C   C375      1.0  0.75409  0.40026  0.71240  1.0000
  H   H169      1.0  0.74440  0.39970  0.73590  1.0000
  C   C376      1.0  0.76888  0.36969  0.69879  1.0000
  C   C377      1.0  0.76370  0.46775  0.59876  1.0000
  H   H170      1.0  0.76290  0.44550  0.58650  1.0000
  C   C378      1.0  0.78403  0.37147  0.66390  1.0000
  H   H171      1.0  0.79540  0.35100  0.65400  1.0000
  C   C379      1.0  0.75264  0.43271  0.69307  1.0000
  O   O69       1.0  0.75581  0.33389  0.24973  1.0000
  O   O70       1.0  0.78712  0.30843  0.29563  1.0000
  C   C380      1.0  0.77070  0.33413  0.28057  1.0000
  C   C381      1.0  0.75409  0.40026  0.28760  1.0000
  H   H172      1.0  0.74440  0.39970  0.26410  1.0000
  C   C382      1.0  0.76100  0.47139  0.52018  1.0000
  C   C383      1.0  0.76370  0.46775  0.40124  1.0000
  H   H173      1.0  0.76290  0.44550  0.41350  1.0000
  C   C384      1.0  0.76888  0.36969  0.30121  1.0000
  C   C385      1.0  0.78403  0.37147  0.33610  1.0000
  H   H174      1.0  0.79540  0.35100  0.34600  1.0000
  C   C386      1.0  0.75264  0.43271  0.30693  1.0000
  H   H175      1.0  0.74220  0.45350  0.29650  1.0000
  C   C387      1.0  0.76670  0.43393  0.34151  1.0000
  C   C388      1.0  0.76550  0.46874  0.36331  1.0000
  C   C389      1.0  0.78240  0.40277  0.35584  1.0000
  H   H176      1.0  0.79200  0.40330  0.37940  1.0000
  C   C390      1.0  0.76100  0.47139  0.47982  1.0000
  O   O71       1.0  0.75581  0.66611  0.75027  1.0000
  O   O72       1.0  0.78712  0.69157  0.70437  1.0000
  H   H177      1.0  0.74220  0.45350  0.70350  1.0000
  C   C391      1.0  0.75409  0.59974  0.71240  1.0000
  H   H178      1.0  0.74440  0.60030  0.73590  1.0000
  C   C392      1.0  0.76888  0.63031  0.69879  1.0000
  C   C393      1.0  0.76370  0.53225  0.59876  1.0000
  H   H179      1.0  0.76290  0.55450  0.58650  1.0000
  C   C394      1.0  0.77070  0.66587  0.71943  1.0000
  C   C395      1.0  0.78403  0.62853  0.66390  1.0000
  H   H180      1.0  0.79540  0.64900  0.65400  1.0000
  C   C396      1.0  0.75264  0.56729  0.69307  1.0000
  O   O73       1.0  0.24419  0.66611  0.24973  1.0000
  O   O74       1.0  0.21288  0.69157  0.29563  1.0000
  C   C397      1.0  0.22930  0.66587  0.28057  1.0000
  C   C398      1.0  0.24591  0.59974  0.28760  1.0000
  H   H181      1.0  0.25560  0.60030  0.26410  1.0000
  C   C399      1.0  0.23112  0.63031  0.30121  1.0000
  C   C400      1.0  0.23630  0.53225  0.40124  1.0000
  H   H182      1.0  0.23710  0.55450  0.41350  1.0000
  C   C401      1.0  0.21597  0.62853  0.33610  1.0000
  H   H183      1.0  0.20460  0.64900  0.34600  1.0000
  C   C402      1.0  0.24736  0.56729  0.30693  1.0000
  H   H184      1.0  0.25780  0.54650  0.29650  1.0000
  C   C403      1.0  0.23330  0.56607  0.34151  1.0000
  C   C404      1.0  0.23450  0.53126  0.36331  1.0000
  C   C405      1.0  0.21760  0.59723  0.35584  1.0000
  H   H185      1.0  0.20800  0.59670  0.37940  1.0000
  C   C406      1.0  0.23900  0.52861  0.47982  1.0000
  H   H186      1.0  0.20460  0.35100  0.34600  1.0000
  H   H187      1.0  0.25780  0.45350  0.29650  1.0000
  C   C407      1.0  0.23330  0.43393  0.34151  1.0000
  C   C408      1.0  0.23450  0.46874  0.36331  1.0000
  C   C409      1.0  0.21760  0.40277  0.35584  1.0000
  H   H188      1.0  0.20800  0.40330  0.37940  1.0000
  O   O75       1.0  0.24419  0.66611  0.75027  1.0000
  O   O76       1.0  0.21288  0.69157  0.70437  1.0000
  C   C410      1.0  0.22930  0.66587  0.71943  1.0000
  C   C411      1.0  0.24591  0.59974  0.71240  1.0000
  H   H189      1.0  0.25560  0.60030  0.73590  1.0000
  C   C412      1.0  0.23112  0.63031  0.69879  1.0000
  C   C413      1.0  0.23630  0.53225  0.59876  1.0000
  H   H190      1.0  0.23710  0.55450  0.58650  1.0000
  C   C414      1.0  0.21597  0.62853  0.66390  1.0000
  H   H191      1.0  0.20460  0.64900  0.65400  1.0000
  C   C415      1.0  0.24736  0.56729  0.69307  1.0000
  H   H192      1.0  0.25780  0.54650  0.70350  1.0000
  C   C416      1.0  0.23330  0.56607  0.65849  1.0000
  C   C417      1.0  0.23450  0.53126  0.63669  1.0000
  C   C418      1.0  0.21760  0.59723  0.64416  1.0000
  H   H193      1.0  0.20800  0.59670  0.62060  1.0000
  N   N19       1.0  0.23410  0.50000  0.65566  1.0000
  C   C419      1.0  0.23780  0.50000  0.53922  1.0000
  C   C420      1.0  0.23670  0.50000  0.57965  1.0000
  C   C421      1.0  0.23900  0.52861  0.52018  1.0000
  C   C422      1.0  0.23780  0.50000  0.46078  1.0000
  C   C423      1.0  0.23670  0.50000  0.42035  1.0000
  N   N20       1.0  0.23410  0.50000  0.34434  1.0000
  C   C424      1.0  0.23630  0.46775  0.40124  1.0000
  H   H194      1.0  0.23710  0.44550  0.41350  1.0000
  C   C425      1.0  0.24591  0.40026  0.28760  1.0000
  C   C426      1.0  0.21597  0.37147  0.33610  1.0000
  C   C427      1.0  0.23112  0.36969  0.30121  1.0000
  C   C428      1.0  0.24736  0.43271  0.30693  1.0000
  O   O77       1.0  0.24419  0.33389  0.75027  1.0000
  O   O78       1.0  0.21288  0.30843  0.70437  1.0000
  C   C429      1.0  0.22930  0.33413  0.71943  1.0000
  C   C430      1.0  0.24591  0.40026  0.71240  1.0000
  H   H195      1.0  0.25560  0.39970  0.73590  1.0000
  C   C431      1.0  0.23900  0.47139  0.47982  1.0000
  C   C432      1.0  0.23630  0.46775  0.59876  1.0000
  H   H196      1.0  0.23710  0.44550  0.58650  1.0000
  C   C433      1.0  0.23112  0.36969  0.69879  1.0000
  C   C434      1.0  0.21597  0.37147  0.66390  1.0000
  H   H197      1.0  0.20460  0.35100  0.65400  1.0000
  C   C435      1.0  0.24736  0.43271  0.69307  1.0000
  H   H198      1.0  0.25780  0.45350  0.70350  1.0000
  C   C436      1.0  0.23330  0.43393  0.65849  1.0000
  C   C437      1.0  0.23450  0.46874  0.63669  1.0000
  C   C438      1.0  0.21760  0.40277  0.64416  1.0000
  H   H199      1.0  0.20800  0.40330  0.62060  1.0000
  C   C439      1.0  0.23900  0.47139  0.52018  1.0000
  O   O79       1.0  0.24419  0.33389  0.24973  1.0000
  O   O80       1.0  0.21288  0.30843  0.29563  1.0000
  C   C440      1.0  0.22930  0.33413  0.28057  1.0000
  H   H200      1.0  0.25560  0.39970  0.26410  1.0000
  O   O81       1.0  0.33389  0.24973  0.24419  1.0000
  O   O82       1.0  0.30843  0.29563  0.21288  1.0000
  C   C441      1.0  0.33413  0.28057  0.22930  1.0000
  C   C442      1.0  0.40026  0.28760  0.24591  1.0000
  H   H201      1.0  0.39970  0.26410  0.25560  1.0000
  C   C443      1.0  0.36969  0.30121  0.23112  1.0000
  C   C444      1.0  0.46775  0.40124  0.23630  1.0000
  H   H202      1.0  0.44550  0.41350  0.23710  1.0000
  C   C445      1.0  0.37147  0.33610  0.21597  1.0000
  H   H203      1.0  0.35100  0.34600  0.20460  1.0000
  C   C446      1.0  0.43271  0.30693  0.24736  1.0000
  O   O83       1.0  0.33389  0.75027  0.24419  1.0000
  O   O84       1.0  0.30843  0.70437  0.21288  1.0000
  C   C447      1.0  0.33413  0.71943  0.22930  1.0000
  C   C448      1.0  0.40026  0.71240  0.24591  1.0000
  H   H204      1.0  0.39970  0.73590  0.25560  1.0000
  C   C449      1.0  0.47139  0.47982  0.23900  1.0000
  C   C450      1.0  0.46775  0.59876  0.23630  1.0000
  H   H205      1.0  0.44550  0.58650  0.23710  1.0000
  C   C451      1.0  0.36969  0.69879  0.23112  1.0000
  C   C452      1.0  0.37147  0.66390  0.21597  1.0000
  H   H206      1.0  0.35100  0.65400  0.20460  1.0000
  C   C453      1.0  0.43271  0.69307  0.24736  1.0000
  H   H207      1.0  0.45350  0.70350  0.25780  1.0000
  C   C454      1.0  0.43393  0.65849  0.23330  1.0000
  C   C455      1.0  0.46874  0.63669  0.23450  1.0000
  C   C456      1.0  0.40277  0.64416  0.21760  1.0000
  H   H208      1.0  0.40330  0.62060  0.20800  1.0000
  C   C457      1.0  0.47139  0.52018  0.23900  1.0000
  O   O85       1.0  0.66611  0.24973  0.24419  1.0000
  O   O86       1.0  0.69157  0.29563  0.21288  1.0000
  C   C458      1.0  0.66587  0.28057  0.22930  1.0000
  C   C459      1.0  0.59974  0.28760  0.24591  1.0000
  H   H209      1.0  0.60030  0.26410  0.25560  1.0000
  C   C460      1.0  0.63031  0.30121  0.23112  1.0000
  C   C461      1.0  0.53225  0.40124  0.23630  1.0000
  H   H210      1.0  0.55450  0.41350  0.23710  1.0000
  C   C462      1.0  0.62853  0.33610  0.21597  1.0000
  H   H211      1.0  0.64900  0.34600  0.20460  1.0000
  C   C463      1.0  0.56729  0.30693  0.24736  1.0000
  H   H212      1.0  0.54650  0.29650  0.25780  1.0000
  C   C464      1.0  0.56607  0.34151  0.23330  1.0000
  C   C465      1.0  0.53126  0.36331  0.23450  1.0000
  C   C466      1.0  0.59723  0.35584  0.21760  1.0000
  N   N21       1.0  0.50000  0.65566  0.23410  1.0000
  C   C467      1.0  0.50000  0.53922  0.23780  1.0000
  C   C468      1.0  0.50000  0.57965  0.23670  1.0000
  C   C469      1.0  0.52861  0.47982  0.23900  1.0000
  H   H213      1.0  0.59670  0.37940  0.20800  1.0000
  N   N22       1.0  0.50000  0.34434  0.23410  1.0000
  C   C470      1.0  0.50000  0.46078  0.23780  1.0000
  C   C471      1.0  0.50000  0.42035  0.23670  1.0000
  C   C472      1.0  0.40277  0.35584  0.21760  1.0000
  H   H214      1.0  0.45350  0.29650  0.25780  1.0000
  C   C473      1.0  0.43393  0.34151  0.23330  1.0000
  O   O87       1.0  0.66611  0.75027  0.24419  1.0000
  O   O88       1.0  0.69157  0.70437  0.21288  1.0000
  C   C474      1.0  0.66587  0.71943  0.22930  1.0000
  C   C475      1.0  0.59974  0.71240  0.24591  1.0000
  H   H215      1.0  0.60030  0.73590  0.25560  1.0000
  C   C476      1.0  0.63031  0.69879  0.23112  1.0000
  C   C477      1.0  0.53225  0.59876  0.23630  1.0000
  H   H216      1.0  0.55450  0.58650  0.23710  1.0000
  C   C478      1.0  0.46874  0.36331  0.23450  1.0000
  C   C479      1.0  0.62853  0.66390  0.21597  1.0000
  H   H217      1.0  0.64900  0.65400  0.20460  1.0000
  C   C480      1.0  0.56729  0.69307  0.24736  1.0000
  H   H218      1.0  0.54650  0.70350  0.25780  1.0000
  C   C481      1.0  0.56607  0.65849  0.23330  1.0000
  C   C482      1.0  0.53126  0.63669  0.23450  1.0000
  C   C483      1.0  0.59723  0.64416  0.21760  1.0000
  H   H219      1.0  0.59670  0.62060  0.20800  1.0000
  C   C484      1.0  0.52861  0.52018  0.23900  1.0000
  H   H220      1.0  0.40330  0.37940  0.20800  1.0000
  C   C485      1.0  0.53225  0.40124  0.76370  1.0000
  H   H221      1.0  0.55450  0.41350  0.76290  1.0000
  C   C486      1.0  0.62853  0.33610  0.78403  1.0000
  H   H222      1.0  0.64900  0.34600  0.79540  1.0000
  C   C487      1.0  0.56729  0.30693  0.75264  1.0000
  H   H223      1.0  0.54650  0.29650  0.74220  1.0000
  C   C488      1.0  0.56607  0.34151  0.76670  1.0000
  C   C489      1.0  0.53126  0.36331  0.76550  1.0000
  C   C490      1.0  0.59723  0.35584  0.78240  1.0000
  H   H224      1.0  0.59670  0.37940  0.79200  1.0000
  C   C491      1.0  0.52861  0.47982  0.76100  1.0000
  C   C492      1.0  0.43393  0.65849  0.76670  1.0000
  H   H225      1.0  0.45350  0.70350  0.74220  1.0000
  C   C493      1.0  0.33413  0.71943  0.77070  1.0000
  C   C494      1.0  0.46874  0.63669  0.76550  1.0000
  C   C495      1.0  0.40026  0.71240  0.75409  1.0000
  H   H226      1.0  0.39970  0.73590  0.74440  1.0000
  C   C496      1.0  0.46775  0.59876  0.76370  1.0000
  H   H227      1.0  0.44550  0.58650  0.76290  1.0000
  C   C497      1.0  0.40277  0.64416  0.78240  1.0000
  C   C498      1.0  0.37147  0.66390  0.78403  1.0000
  C   C499      1.0  0.36969  0.69879  0.76888  1.0000
  C   C500      1.0  0.43271  0.69307  0.75264  1.0000
  O   O89       1.0  0.33389  0.24973  0.75581  1.0000
  O   O90       1.0  0.30843  0.29563  0.78712  1.0000
  C   C501      1.0  0.33413  0.28057  0.77070  1.0000
  C   C502      1.0  0.40026  0.28760  0.75409  1.0000
  H   H228      1.0  0.39970  0.26410  0.74440  1.0000
  C   C503      1.0  0.47139  0.52018  0.76100  1.0000
  C   C504      1.0  0.46775  0.40124  0.76370  1.0000
  H   H229      1.0  0.44550  0.41350  0.76290  1.0000
  C   C505      1.0  0.36969  0.30121  0.76888  1.0000
  C   C506      1.0  0.37147  0.33610  0.78403  1.0000
  H   H230      1.0  0.35100  0.34600  0.79540  1.0000
  C   C507      1.0  0.43271  0.30693  0.75264  1.0000
  H   H231      1.0  0.45350  0.29650  0.74220  1.0000
  C   C508      1.0  0.43393  0.34151  0.76670  1.0000
  C   C509      1.0  0.46874  0.36331  0.76550  1.0000
  C   C510      1.0  0.40277  0.35584  0.78240  1.0000
  H   H232      1.0  0.40330  0.37940  0.79200  1.0000
  C   C511      1.0  0.47139  0.47982  0.76100  1.0000
  O   O91       1.0  0.66611  0.75027  0.75581  1.0000
  C   C512      1.0  0.66587  0.71943  0.77070  1.0000
  O   O92       1.0  0.69157  0.70437  0.78712  1.0000
  H   H233      1.0  0.60030  0.73590  0.74440  1.0000
  C   C513      1.0  0.63031  0.69879  0.76888  1.0000
  O   O93       1.0  0.33389  0.75027  0.75581  1.0000
  O   O94       1.0  0.30843  0.70437  0.78712  1.0000
  N   N23       1.0  0.50000  0.34434  0.76590  1.0000
  C   C514      1.0  0.50000  0.46078  0.76220  1.0000
  C   C515      1.0  0.50000  0.42035  0.76330  1.0000
  N   N24       1.0  0.50000  0.65566  0.76590  1.0000
  C   C516      1.0  0.50000  0.53922  0.76220  1.0000
  C   C517      1.0  0.50000  0.57965  0.76330  1.0000
  C   C518      1.0  0.53225  0.59876  0.76370  1.0000
  H   H234      1.0  0.55450  0.58650  0.76290  1.0000
  C   C519      1.0  0.59974  0.71240  0.75409  1.0000
  C   C520      1.0  0.62853  0.66390  0.78403  1.0000
  C   C521      1.0  0.56729  0.69307  0.75264  1.0000
  H   H235      1.0  0.54650  0.70350  0.74220  1.0000
  C   C522      1.0  0.56607  0.65849  0.76670  1.0000
  C   C523      1.0  0.53126  0.63669  0.76550  1.0000
  C   C524      1.0  0.59723  0.64416  0.78240  1.0000
  H   H236      1.0  0.59670  0.62060  0.79200  1.0000
  C   C525      1.0  0.52861  0.52018  0.76100  1.0000
  H   H237      1.0  0.64900  0.65400  0.79540  1.0000
  H   H238      1.0  0.35100  0.65400  0.79540  1.0000
  H   H239      1.0  0.40330  0.62060  0.79200  1.0000
  O   O95       1.0  0.66611  0.24973  0.75581  1.0000
  O   O96       1.0  0.69157  0.29563  0.78712  1.0000
  C   C526      1.0  0.66587  0.28057  0.77070  1.0000
  C   C527      1.0  0.59974  0.28760  0.75409  1.0000
  H   H240      1.0  0.60030  0.26410  0.74440  1.0000
  C   C528      1.0  0.63031  0.30121  0.76888  1.0000
  In  In1       1.0  0.78919  0.75000  0.71081  1.0000
  In  In2       1.0  0.78919  0.25000  0.28919  1.0000
  In  In3       1.0  0.21081  0.25000  0.71081  1.0000
  In  In4       1.0  0.21081  0.75000  0.28919  1.0000
  In  In5       1.0  0.71081  0.78919  0.75000  1.0000
  In  In6       1.0  0.28919  0.78919  0.25000  1.0000
  In  In7       1.0  0.71081  0.21081  0.25000  1.0000
  In  In8       1.0  0.28919  0.21081  0.75000  1.0000
  O   O97       1.0  0.25000  0.25000  0.25000  1.0000
  O   O98       1.0  0.75000  0.75000  0.25000  1.0000
  O   O99       1.0  0.75000  0.25000  0.75000  1.0000
  O   O100      1.0  0.25000  0.75000  0.75000  1.0000
  O   O101      1.0  0.75000  0.75000  0.75000  1.0000
  O   O102      1.0  0.25000  0.25000  0.75000  1.0000
  O   O103      1.0  0.25000  0.75000  0.25000  1.0000
  O   O104      1.0  0.75000  0.25000  0.25000  1.0000
  In  In9       1.0  0.25000  0.28919  0.21081  1.0000
  In  In10      1.0  0.75000  0.71081  0.21081  1.0000
  In  In11      1.0  0.75000  0.28919  0.78919  1.0000
  In  In12      1.0  0.25000  0.71081  0.78919  1.0000
  In  In13      1.0  0.21081  0.25000  0.28919  1.0000
  In  In14      1.0  0.21081  0.75000  0.71081  1.0000
  In  In15      1.0  0.78919  0.75000  0.28919  1.0000
  In  In16      1.0  0.78919  0.25000  0.71081  1.0000
  In  In17      1.0  0.28919  0.21081  0.25000  1.0000
  In  In18      1.0  0.71081  0.21081  0.75000  1.0000
  In  In19      1.0  0.28919  0.78919  0.75000  1.0000
  In  In20      1.0  0.71081  0.78919  0.25000  1.0000
  In  In21      1.0  0.75000  0.71081  0.78919  1.0000
  In  In22      1.0  0.25000  0.28919  0.78919  1.0000
  In  In23      1.0  0.25000  0.71081  0.21081  1.0000
  In  In24      1.0  0.75000  0.28919  0.21081  1.0000
