data_image0
_chemical_formula_structural       O5C3HCHC2HCHC2HCHC2HCHCO5C3HCHC2HCHC2HCHC2HCHC4HCHC2HCHC2HCHC2HCHCO5C3HCHC2HCHC2HCHC2HCHCO10C3HCHC2HCHC2HCHC2HCHC4HCHC2HCHC2HCHC2HCHCO10C3HCHC2HCHC2HCHC2HCHC4HCHC2HCHC2HCHC2HCHCO10C3HCHC2HCHC2HCHC2HCHC2HC2HCHC2HCHC2HCHCO5C3HO5C3HCHC2HCHC2HCHC2HCHCO5C3HCHC2HCHC2HCHC2HCHCO3C3HCHC2HCHC2HCHC2HCHCO7C3HCHC2HCHC2HCHC2HCHC2HC2HCHC2HCHC2HCHCO5C3HC3HCHC2HCHC2HCHC2HCHCO5N5CHCHCHC2HCHCHC2HCHCHN5CHCHCHC2HCHCHC2HCHCHCHCHCHC2HCHCHC2HCHCHN5CHCHCHC2HCHCHC2HCHCHN5CHCHCHC2HCHCHC2HCHCHN5CHCHCHC2HCHCHC2HCHCHN10CHCHCHC2HCHCHC2HCHCHCHCHC2HCHCHC2HCHCHN5CHN5CHCHCHC2HCHCHC2HCHCHN5CHCHCHC2HCHCHC2HCHCHN5CHCHCHC2HCHCHC2HCHCHN5CHCHCHC2HCHCHC2HCHCHN5CHCHCHC2HCHCHC2HCHCHN5CHCHCHC2HCHCHC2HCHCHCHCHCHC2HCHCHC2HCHCHN5CHCHCHC2HCHCHC2HCHCHN5Co16
_chemical_formula_sum              "O80 C400 H272 N80 Co16"
_cell_length_a       16.2954
_cell_length_b       21.505
_cell_length_c       26.981
_cell_angle_alpha    90
_cell_angle_beta     90
_cell_angle_gamma    90

_space_group_name_H-M_alt    "P 1"
_space_group_IT_number       1

loop_
  _space_group_symop_operation_xyz
  'x, y, z'

loop_
  _atom_site_type_symbol
  _atom_site_label
  _atom_site_symmetry_multiplicity
  _atom_site_fract_x
  _atom_site_fract_y
  _atom_site_fract_z
  _atom_site_occupancy
  O   O1        1.0  0.21572  0.96681  0.31053  1.0000
  O   O2        1.0  0.23869  0.06524  0.32703  1.0000
  O   O3        1.0  0.92137  0.02246  0.45865  1.0000
  O   O4        1.0  0.63919  0.82530  0.41204  1.0000
  O   O5        1.0  0.60040  0.86071  0.48471  1.0000
  C   C1        1.0  0.19833  0.01526  0.33394  1.0000
  C   C2        1.0  0.12720  0.01565  0.36872  1.0000
  C   C3        1.0  0.09265  0.07170  0.38322  1.0000
  H   H1        1.0  0.11710  0.10960  0.37280  1.0000
  C   C4        1.0  0.02311  0.07329  0.41265  1.0000
  H   H2        1.0  0.99930  0.11180  0.42210  1.0000
  C   C5        1.0  0.98917  0.01769  0.42794  1.0000
  C   C6        1.0  0.02383  0.96129  0.41548  1.0000
  H   H3        1.0  0.00090  0.92360  0.42750  1.0000
  C   C7        1.0  0.09248  0.96039  0.38515  1.0000
  H   H4        1.0  0.11590  0.92180  0.37560  1.0000
  C   C8        1.0  0.85773  0.98039  0.45365  1.0000
  C   C9        1.0  0.81703  0.96543  0.49693  1.0000
  H   H5        1.0  0.83560  0.98130  0.52780  1.0000
  C   C10       1.0  0.74909  0.92718  0.49483  1.0000
  H   H6        1.0  0.72040  0.91710  0.52440  1.0000
  C   C11       1.0  0.72245  0.90332  0.44963  1.0000
  C   C12       1.0  0.76445  0.91881  0.40652  1.0000
  H   H7        1.0  0.74650  0.90250  0.37560  1.0000
  C   C13       1.0  0.83203  0.95767  0.40811  1.0000
  H   H8        1.0  0.86030  0.96860  0.37860  1.0000
  C   C14       1.0  0.65009  0.86100  0.44799  1.0000
  O   O6        1.0  0.94470  0.83566  0.08983  1.0000
  O   O7        1.0  0.95967  0.73457  0.09317  1.0000
  O   O8        1.0  0.62865  0.74810  0.21310  1.0000
  O   O9        1.0  0.36755  0.96601  0.21554  1.0000
  O   O10       1.0  0.39459  0.96268  0.29476  1.0000
  C   C15       1.0  0.91951  0.78306  0.10414  1.0000
  C   C16       1.0  0.84099  0.77693  0.13192  1.0000
  C   C17       1.0  0.80764  0.82602  0.15863  1.0000
  H   H9        1.0  0.83480  0.86510  0.15890  1.0000
  C   C18       1.0  0.73524  0.81852  0.18482  1.0000
  H   H10       1.0  0.71270  0.85200  0.20330  1.0000
  C   C19       1.0  0.69613  0.76124  0.18353  1.0000
  C   C20       1.0  0.72589  0.71276  0.15526  1.0000
  H   H11       1.0  0.69710  0.67440  0.15360  1.0000
  C   C21       1.0  0.79813  0.72105  0.12945  1.0000
  H   H12       1.0  0.81900  0.68810  0.10970  1.0000
  C   C22       1.0  0.57464  0.79672  0.22261  1.0000
  C   C23       1.0  0.56403  0.81632  0.27084  1.0000
  H   H13       1.0  0.59440  0.79780  0.29700  1.0000
  C   C24       1.0  0.50838  0.86335  0.28036  1.0000
  H   H14       1.0  0.50040  0.87730  0.31340  1.0000
  C   C25       1.0  0.46401  0.89035  0.24194  1.0000
  C   C26       1.0  0.47459  0.86900  0.19406  1.0000
  H   H15       1.0  0.44350  0.88670  0.16780  1.0000
  C   C27       1.0  0.53021  0.82198  0.18400  1.0000
  H   H16       1.0  0.53770  0.80740  0.15110  1.0000
  C   C28       1.0  0.40586  0.94248  0.25104  1.0000
  C   C29       1.0  0.30167  0.98474  0.83394  1.0000
  C   C30       1.0  0.37280  0.98435  0.86872  1.0000
  C   C31       1.0  0.40735  0.92830  0.88322  1.0000
  H   H17       1.0  0.38290  0.89040  0.87280  1.0000
  C   C32       1.0  0.47689  0.92671  0.91265  1.0000
  H   H18       1.0  0.50070  0.88820  0.92210  1.0000
  C   C33       1.0  0.51083  0.98231  0.92794  1.0000
  C   C34       1.0  0.47617  0.03871  0.91548  1.0000
  H   H19       1.0  0.49910  0.07640  0.92750  1.0000
  C   C35       1.0  0.40752  0.03961  0.88515  1.0000
  H   H20       1.0  0.38410  0.07820  0.87560  1.0000
  C   C36       1.0  0.64227  0.01961  0.95365  1.0000
  C   C37       1.0  0.68297  0.03457  0.99693  1.0000
  H   H21       1.0  0.66440  0.01870  0.02780  1.0000
  C   C38       1.0  0.75091  0.07282  0.99483  1.0000
  H   H22       1.0  0.77960  0.08290  0.02440  1.0000
  C   C39       1.0  0.77755  0.09668  0.94963  1.0000
  C   C40       1.0  0.73555  0.08119  0.90652  1.0000
  H   H23       1.0  0.75350  0.09750  0.87560  1.0000
  C   C41       1.0  0.66797  0.04233  0.90811  1.0000
  H   H24       1.0  0.63970  0.03140  0.87860  1.0000
  C   C42       1.0  0.84991  0.13900  0.94799  1.0000
  O   O11       1.0  0.28428  0.03319  0.81053  1.0000
  O   O12       1.0  0.26131  0.93476  0.82703  1.0000
  O   O13       1.0  0.57863  0.97754  0.95865  1.0000
  O   O14       1.0  0.86081  0.17470  0.91204  1.0000
  O   O15       1.0  0.89960  0.13929  0.98471  1.0000
  C   C43       1.0  0.58049  0.21694  0.60414  1.0000
  C   C44       1.0  0.65901  0.22307  0.63192  1.0000
  C   C45       1.0  0.69236  0.17398  0.65863  1.0000
  H   H25       1.0  0.66520  0.13490  0.65890  1.0000
  C   C46       1.0  0.76476  0.18148  0.68482  1.0000
  H   H26       1.0  0.78730  0.14800  0.70330  1.0000
  C   C47       1.0  0.80387  0.23876  0.68353  1.0000
  C   C48       1.0  0.77411  0.28724  0.65526  1.0000
  H   H27       1.0  0.80290  0.32560  0.65360  1.0000
  C   C49       1.0  0.70187  0.27895  0.62945  1.0000
  H   H28       1.0  0.68100  0.31190  0.60970  1.0000
  C   C50       1.0  0.92536  0.20328  0.72261  1.0000
  C   C51       1.0  0.93597  0.18368  0.77084  1.0000
  H   H29       1.0  0.90560  0.20220  0.79700  1.0000
  C   C52       1.0  0.99162  0.13665  0.78036  1.0000
  H   H30       1.0  0.99960  0.12270  0.81340  1.0000
  C   C53       1.0  0.03599  0.10965  0.74194  1.0000
  C   C54       1.0  0.02541  0.13100  0.69406  1.0000
  H   H31       1.0  0.05650  0.11330  0.66780  1.0000
  C   C55       1.0  0.96979  0.17802  0.68400  1.0000
  H   H32       1.0  0.96230  0.19260  0.65110  1.0000
  C   C56       1.0  0.09414  0.05752  0.75104  1.0000
  O   O16       1.0  0.55530  0.16434  0.58983  1.0000
  O   O17       1.0  0.54033  0.26543  0.59317  1.0000
  O   O18       1.0  0.87135  0.25190  0.71310  1.0000
  O   O19       1.0  0.13245  0.03399  0.71554  1.0000
  O   O20       1.0  0.10541  0.03732  0.79476  1.0000
  O   O21       1.0  0.78428  0.46681  0.18947  1.0000
  O   O22       1.0  0.76131  0.56524  0.17297  1.0000
  O   O23       1.0  0.07863  0.52246  0.04135  1.0000
  O   O24       1.0  0.36081  0.32530  0.08796  1.0000
  O   O25       1.0  0.39960  0.36071  0.01529  1.0000
  C   C57       1.0  0.80167  0.51526  0.16606  1.0000
  C   C58       1.0  0.87280  0.51565  0.13128  1.0000
  C   C59       1.0  0.90735  0.57170  0.11678  1.0000
  H   H33       1.0  0.88290  0.60960  0.12720  1.0000
  C   C60       1.0  0.97689  0.57329  0.08735  1.0000
  H   H34       1.0  0.00070  0.61180  0.07790  1.0000
  C   C61       1.0  0.01083  0.51769  0.07206  1.0000
  C   C62       1.0  0.97617  0.46129  0.08452  1.0000
  H   H35       1.0  0.99910  0.42360  0.07250  1.0000
  C   C63       1.0  0.90752  0.46039  0.11485  1.0000
  H   H36       1.0  0.88410  0.42180  0.12440  1.0000
  C   C64       1.0  0.14227  0.48039  0.04635  1.0000
  C   C65       1.0  0.18297  0.46543  0.00307  1.0000
  H   H37       1.0  0.16440  0.48130  0.97220  1.0000
  C   C66       1.0  0.25091  0.42718  0.00517  1.0000
  H   H38       1.0  0.27960  0.41710  0.97560  1.0000
  C   C67       1.0  0.27755  0.40332  0.05037  1.0000
  C   C68       1.0  0.23555  0.41881  0.09348  1.0000
  H   H39       1.0  0.25350  0.40250  0.12440  1.0000
  C   C69       1.0  0.16797  0.45767  0.09189  1.0000
  H   H40       1.0  0.13970  0.46860  0.12140  1.0000
  C   C70       1.0  0.34991  0.36100  0.05201  1.0000
  C   C71       1.0  0.08049  0.28306  0.39586  1.0000
  C   C72       1.0  0.15901  0.27693  0.36808  1.0000
  C   C73       1.0  0.19236  0.32602  0.34137  1.0000
  H   H41       1.0  0.16520  0.36510  0.34110  1.0000
  C   C74       1.0  0.26476  0.31852  0.31518  1.0000
  H   H42       1.0  0.28730  0.35200  0.29670  1.0000
  C   C75       1.0  0.30387  0.26124  0.31647  1.0000
  C   C76       1.0  0.27411  0.21276  0.34474  1.0000
  H   H43       1.0  0.30290  0.17440  0.34640  1.0000
  C   C77       1.0  0.20187  0.22105  0.37055  1.0000
  H   H44       1.0  0.18100  0.18810  0.39030  1.0000
  C   C78       1.0  0.42536  0.29672  0.27739  1.0000
  C   C79       1.0  0.43597  0.31632  0.22916  1.0000
  H   H45       1.0  0.40560  0.29780  0.20300  1.0000
  C   C80       1.0  0.49162  0.36335  0.21964  1.0000
  H   H46       1.0  0.49960  0.37730  0.18660  1.0000
  C   C81       1.0  0.53599  0.39035  0.25806  1.0000
  C   C82       1.0  0.52541  0.36900  0.30594  1.0000
  H   H47       1.0  0.55650  0.38670  0.33220  1.0000
  C   C83       1.0  0.46979  0.32198  0.31600  1.0000
  H   H48       1.0  0.46230  0.30740  0.34890  1.0000
  C   C84       1.0  0.59414  0.44248  0.24896  1.0000
  O   O26       1.0  0.05530  0.33566  0.41017  1.0000
  O   O27       1.0  0.04033  0.23457  0.40683  1.0000
  O   O28       1.0  0.37135  0.24810  0.28690  1.0000
  O   O29       1.0  0.63245  0.46601  0.28446  1.0000
  O   O30       1.0  0.60541  0.46268  0.20524  1.0000
  O   O31       1.0  0.71572  0.53319  0.68947  1.0000
  O   O32       1.0  0.73869  0.43476  0.67297  1.0000
  O   O33       1.0  0.42137  0.47754  0.54135  1.0000
  O   O34       1.0  0.13919  0.67470  0.58796  1.0000
  O   O35       1.0  0.10040  0.63929  0.51529  1.0000
  C   C85       1.0  0.69833  0.48474  0.66606  1.0000
  C   C86       1.0  0.62720  0.48435  0.63128  1.0000
  C   C87       1.0  0.59265  0.42830  0.61678  1.0000
  H   H49       1.0  0.61710  0.39040  0.62720  1.0000
  C   C88       1.0  0.52311  0.42671  0.58735  1.0000
  H   H50       1.0  0.49930  0.38820  0.57790  1.0000
  C   C89       1.0  0.48917  0.48231  0.57206  1.0000
  C   C90       1.0  0.52383  0.53871  0.58452  1.0000
  H   H51       1.0  0.50090  0.57640  0.57250  1.0000
  C   C91       1.0  0.59248  0.53961  0.61485  1.0000
  H   H52       1.0  0.61590  0.57820  0.62440  1.0000
  C   C92       1.0  0.35773  0.51961  0.54635  1.0000
  C   C93       1.0  0.31703  0.53457  0.50307  1.0000
  H   H53       1.0  0.33560  0.51870  0.47220  1.0000
  C   C94       1.0  0.24909  0.57282  0.50517  1.0000
  H   H54       1.0  0.22040  0.58290  0.47560  1.0000
  C   C95       1.0  0.22245  0.59668  0.55037  1.0000
  C   C96       1.0  0.26445  0.58119  0.59348  1.0000
  H   H55       1.0  0.24650  0.59750  0.62440  1.0000
  C   C97       1.0  0.33203  0.54233  0.59189  1.0000
  H   H56       1.0  0.36030  0.53140  0.62140  1.0000
  C   C98       1.0  0.15009  0.63900  0.55201  1.0000
  C   C99       1.0  0.41951  0.71694  0.89586  1.0000
  C   C100      1.0  0.34099  0.72307  0.86808  1.0000
  C   C101      1.0  0.30764  0.67398  0.84137  1.0000
  H   H57       1.0  0.33480  0.63490  0.84110  1.0000
  C   C102      1.0  0.23524  0.68148  0.81518  1.0000
  H   H58       1.0  0.21270  0.64800  0.79670  1.0000
  C   C103      1.0  0.19613  0.73876  0.81647  1.0000
  C   C104      1.0  0.22589  0.78724  0.84474  1.0000
  H   H59       1.0  0.19710  0.82560  0.84640  1.0000
  C   C105      1.0  0.29813  0.77895  0.87055  1.0000
  H   H60       1.0  0.31900  0.81190  0.89030  1.0000
  C   C106      1.0  0.07464  0.70328  0.77739  1.0000
  C   C107      1.0  0.06403  0.68368  0.72916  1.0000
  H   H61       1.0  0.09440  0.70220  0.70300  1.0000
  C   C108      1.0  0.00838  0.63665  0.71964  1.0000
  H   H62       1.0  0.00040  0.62270  0.68660  1.0000
  C   C109      1.0  0.96401  0.60965  0.75806  1.0000
  C   C110      1.0  0.97459  0.63100  0.80594  1.0000
  H   H63       1.0  0.94350  0.61330  0.83220  1.0000
  C   C111      1.0  0.03021  0.67802  0.81600  1.0000
  H   H64       1.0  0.03770  0.69260  0.84890  1.0000
  C   C112      1.0  0.90586  0.55752  0.74896  1.0000
  O   O36       1.0  0.44470  0.66434  0.91017  1.0000
  O   O37       1.0  0.45967  0.76543  0.90683  1.0000
  O   O38       1.0  0.12865  0.75190  0.78690  1.0000
  O   O39       1.0  0.86755  0.53399  0.78446  1.0000
  O   O40       1.0  0.89459  0.53732  0.70524  1.0000
  O   O41       1.0  0.78428  0.03319  0.68947  1.0000
  O   O42       1.0  0.76131  0.93476  0.67297  1.0000
  O   O43       1.0  0.07863  0.97754  0.54135  1.0000
  O   O44       1.0  0.36081  0.17470  0.58796  1.0000
  O   O45       1.0  0.39960  0.13929  0.51529  1.0000
  C   C113      1.0  0.80167  0.98474  0.66606  1.0000
  C   C114      1.0  0.87280  0.98435  0.63128  1.0000
  C   C115      1.0  0.90735  0.92830  0.61678  1.0000
  H   H65       1.0  0.88290  0.89040  0.62720  1.0000
  C   C116      1.0  0.97689  0.92671  0.58735  1.0000
  H   H66       1.0  0.00070  0.88820  0.57790  1.0000
  C   C117      1.0  0.01083  0.98231  0.57206  1.0000
  C   C118      1.0  0.97617  0.03871  0.58452  1.0000
  H   H67       1.0  0.99910  0.07640  0.57250  1.0000
  C   C119      1.0  0.90752  0.03961  0.61485  1.0000
  H   H68       1.0  0.88410  0.07820  0.62440  1.0000
  C   C120      1.0  0.14227  0.01961  0.54635  1.0000
  C   C121      1.0  0.18297  0.03457  0.50307  1.0000
  H   H69       1.0  0.16440  0.01870  0.47220  1.0000
  C   C122      1.0  0.25091  0.07282  0.50517  1.0000
  H   H70       1.0  0.27960  0.08290  0.47560  1.0000
  C   C123      1.0  0.27755  0.09668  0.55037  1.0000
  C   C124      1.0  0.23555  0.08119  0.59348  1.0000
  H   H71       1.0  0.25350  0.09750  0.62440  1.0000
  C   C125      1.0  0.16797  0.04233  0.59189  1.0000
  H   H72       1.0  0.13970  0.03140  0.62140  1.0000
  C   C126      1.0  0.34991  0.13900  0.55201  1.0000
  C   C127      1.0  0.26476  0.18148  0.81518  1.0000
  H   H73       1.0  0.28730  0.14800  0.79670  1.0000
  C   C128      1.0  0.30387  0.23876  0.81647  1.0000
  C   C129      1.0  0.27411  0.28724  0.84474  1.0000
  H   H74       1.0  0.30290  0.32560  0.84640  1.0000
  C   C130      1.0  0.20187  0.27895  0.87055  1.0000
  H   H75       1.0  0.18100  0.31190  0.89030  1.0000
  C   C131      1.0  0.42536  0.20328  0.77739  1.0000
  C   C132      1.0  0.43597  0.18368  0.72916  1.0000
  H   H76       1.0  0.40560  0.20220  0.70300  1.0000
  C   C133      1.0  0.49162  0.13665  0.71964  1.0000
  H   H77       1.0  0.49960  0.12270  0.68660  1.0000
  C   C134      1.0  0.53599  0.10965  0.75806  1.0000
  C   C135      1.0  0.52541  0.13100  0.80594  1.0000
  H   H78       1.0  0.55650  0.11330  0.83220  1.0000
  C   C136      1.0  0.46979  0.17802  0.81600  1.0000
  H   H79       1.0  0.46230  0.19260  0.84890  1.0000
  C   C137      1.0  0.59414  0.05752  0.74896  1.0000
  O   O46       1.0  0.05530  0.16434  0.91017  1.0000
  O   O47       1.0  0.04033  0.26543  0.90683  1.0000
  O   O48       1.0  0.37135  0.25190  0.78690  1.0000
  O   O49       1.0  0.63245  0.03399  0.78446  1.0000
  O   O50       1.0  0.60541  0.03732  0.70524  1.0000
  C   C138      1.0  0.08049  0.21694  0.89586  1.0000
  C   C139      1.0  0.15901  0.22307  0.86808  1.0000
  C   C140      1.0  0.19236  0.17398  0.84137  1.0000
  H   H80       1.0  0.16520  0.13490  0.84110  1.0000
  O   O51       1.0  0.71572  0.96681  0.18947  1.0000
  O   O52       1.0  0.73869  0.06524  0.17297  1.0000
  O   O53       1.0  0.42137  0.02246  0.04135  1.0000
  O   O54       1.0  0.13919  0.82530  0.08796  1.0000
  O   O55       1.0  0.10040  0.86071  0.01529  1.0000
  C   C141      1.0  0.69833  0.01526  0.16606  1.0000
  C   C142      1.0  0.62720  0.01565  0.13128  1.0000
  C   C143      1.0  0.59265  0.07170  0.11678  1.0000
  H   H81       1.0  0.61710  0.10960  0.12720  1.0000
  C   C144      1.0  0.52311  0.07329  0.08735  1.0000
  H   H82       1.0  0.49930  0.11180  0.07790  1.0000
  C   C145      1.0  0.48917  0.01769  0.07206  1.0000
  C   C146      1.0  0.52383  0.96129  0.08452  1.0000
  H   H83       1.0  0.50090  0.92360  0.07250  1.0000
  C   C147      1.0  0.59248  0.96039  0.11485  1.0000
  H   H84       1.0  0.61590  0.92180  0.12440  1.0000
  C   C148      1.0  0.35773  0.98039  0.04635  1.0000
  C   C149      1.0  0.31703  0.96543  0.00307  1.0000
  H   H85       1.0  0.33560  0.98130  0.97220  1.0000
  C   C150      1.0  0.24909  0.92718  0.00517  1.0000
  H   H86       1.0  0.22040  0.91710  0.97560  1.0000
  C   C151      1.0  0.22245  0.90332  0.05037  1.0000
  C   C152      1.0  0.26445  0.91881  0.09348  1.0000
  H   H87       1.0  0.24650  0.90250  0.12440  1.0000
  C   C153      1.0  0.33203  0.95767  0.09189  1.0000
  H   H88       1.0  0.36030  0.96860  0.12140  1.0000
  C   C154      1.0  0.15009  0.86100  0.05201  1.0000
  O   O56       1.0  0.44470  0.83566  0.41017  1.0000
  O   O57       1.0  0.45967  0.73457  0.40683  1.0000
  O   O58       1.0  0.12865  0.74810  0.28690  1.0000
  O   O59       1.0  0.86755  0.96601  0.28446  1.0000
  O   O60       1.0  0.89459  0.96268  0.20524  1.0000
  C   C155      1.0  0.41951  0.78306  0.39586  1.0000
  C   C156      1.0  0.34099  0.77693  0.36808  1.0000
  C   C157      1.0  0.30764  0.82602  0.34137  1.0000
  H   H89       1.0  0.33480  0.86510  0.34110  1.0000
  C   C158      1.0  0.23524  0.81852  0.31518  1.0000
  H   H90       1.0  0.21270  0.85200  0.29670  1.0000
  C   C159      1.0  0.19613  0.76124  0.31647  1.0000
  C   C160      1.0  0.22589  0.71276  0.34474  1.0000
  H   H91       1.0  0.19710  0.67440  0.34640  1.0000
  C   C161      1.0  0.29813  0.72105  0.37055  1.0000
  H   H92       1.0  0.31900  0.68810  0.39030  1.0000
  C   C162      1.0  0.07464  0.79672  0.27739  1.0000
  C   C163      1.0  0.06403  0.81632  0.22916  1.0000
  H   H93       1.0  0.09440  0.79780  0.20300  1.0000
  C   C164      1.0  0.00838  0.86335  0.21964  1.0000
  H   H94       1.0  0.00040  0.87730  0.18660  1.0000
  C   C165      1.0  0.96401  0.89035  0.25806  1.0000
  C   C166      1.0  0.97459  0.86900  0.30594  1.0000
  H   H95       1.0  0.94350  0.88670  0.33220  1.0000
  C   C167      1.0  0.03021  0.82198  0.31600  1.0000
  H   H96       1.0  0.03770  0.80740  0.34890  1.0000
  C   C168      1.0  0.90586  0.94248  0.24896  1.0000
  O   O61       1.0  0.92137  0.47754  0.95865  1.0000
  O   O62       1.0  0.63919  0.67470  0.91204  1.0000
  O   O63       1.0  0.60040  0.63929  0.98471  1.0000
  C   C169      1.0  0.19833  0.48474  0.83394  1.0000
  C   C170      1.0  0.12720  0.48435  0.86872  1.0000
  C   C171      1.0  0.09265  0.42830  0.88322  1.0000
  H   H97       1.0  0.11710  0.39040  0.87280  1.0000
  C   C172      1.0  0.02311  0.42671  0.91265  1.0000
  H   H98       1.0  0.99930  0.38820  0.92210  1.0000
  C   C173      1.0  0.98917  0.48231  0.92794  1.0000
  C   C174      1.0  0.02383  0.53871  0.91548  1.0000
  H   H99       1.0  0.00090  0.57640  0.92750  1.0000
  C   C175      1.0  0.09248  0.53961  0.88515  1.0000
  H   H100      1.0  0.11590  0.57820  0.87560  1.0000
  C   C176      1.0  0.85773  0.51961  0.95365  1.0000
  C   C177      1.0  0.81703  0.53457  0.99693  1.0000
  H   H101      1.0  0.83560  0.51870  0.02780  1.0000
  C   C178      1.0  0.74909  0.57282  0.99483  1.0000
  H   H102      1.0  0.72040  0.58290  0.02440  1.0000
  C   C179      1.0  0.72245  0.59668  0.94963  1.0000
  C   C180      1.0  0.76445  0.58119  0.90652  1.0000
  H   H103      1.0  0.74650  0.59750  0.87560  1.0000
  C   C181      1.0  0.83203  0.54233  0.90811  1.0000
  H   H104      1.0  0.86030  0.53140  0.87860  1.0000
  C   C182      1.0  0.65009  0.63900  0.94799  1.0000
  O   O64       1.0  0.21572  0.53319  0.81053  1.0000
  O   O65       1.0  0.23869  0.43476  0.82703  1.0000
  O   O66       1.0  0.94470  0.66434  0.58983  1.0000
  O   O67       1.0  0.95967  0.76543  0.59317  1.0000
  O   O68       1.0  0.62865  0.75190  0.71310  1.0000
  O   O69       1.0  0.36755  0.53399  0.71554  1.0000
  O   O70       1.0  0.39459  0.53732  0.79476  1.0000
  C   C183      1.0  0.91951  0.71694  0.60414  1.0000
  C   C184      1.0  0.84099  0.72307  0.63192  1.0000
  C   C185      1.0  0.80764  0.67398  0.65863  1.0000
  H   H105      1.0  0.83480  0.63490  0.65890  1.0000
  C   C186      1.0  0.73524  0.68148  0.68482  1.0000
  H   H106      1.0  0.71270  0.64800  0.70330  1.0000
  C   C187      1.0  0.69613  0.73876  0.68353  1.0000
  C   C188      1.0  0.72589  0.78724  0.65526  1.0000
  H   H107      1.0  0.69710  0.82560  0.65360  1.0000
  C   C189      1.0  0.79813  0.77895  0.62945  1.0000
  H   H108      1.0  0.81900  0.81190  0.60970  1.0000
  C   C190      1.0  0.57464  0.70328  0.72261  1.0000
  C   C191      1.0  0.56403  0.68368  0.77084  1.0000
  H   H109      1.0  0.59440  0.70220  0.79700  1.0000
  C   C192      1.0  0.50838  0.63665  0.78036  1.0000
  H   H110      1.0  0.50040  0.62270  0.81340  1.0000
  C   C193      1.0  0.46401  0.60965  0.74194  1.0000
  C   C194      1.0  0.47459  0.63100  0.69406  1.0000
  H   H111      1.0  0.44350  0.61330  0.66780  1.0000
  C   C195      1.0  0.53021  0.67802  0.68400  1.0000
  H   H112      1.0  0.53770  0.69260  0.65110  1.0000
  C   C196      1.0  0.40586  0.55752  0.75104  1.0000
  C   C197      1.0  0.47689  0.57329  0.41265  1.0000
  H   H113      1.0  0.50070  0.61180  0.42210  1.0000
  C   C198      1.0  0.51083  0.51769  0.42794  1.0000
  C   C199      1.0  0.47617  0.46129  0.41548  1.0000
  H   H114      1.0  0.49910  0.42360  0.42750  1.0000
  C   C200      1.0  0.40752  0.46039  0.38515  1.0000
  H   H115      1.0  0.38410  0.42180  0.37560  1.0000
  C   C201      1.0  0.64227  0.48039  0.45365  1.0000
  C   C202      1.0  0.68297  0.46543  0.49693  1.0000
  H   H116      1.0  0.66440  0.48130  0.52780  1.0000
  C   C203      1.0  0.75091  0.42718  0.49483  1.0000
  H   H117      1.0  0.77960  0.41710  0.52440  1.0000
  C   C204      1.0  0.77755  0.40332  0.44963  1.0000
  C   C205      1.0  0.73555  0.41881  0.40652  1.0000
  H   H118      1.0  0.75350  0.40250  0.37560  1.0000
  C   C206      1.0  0.66797  0.45767  0.40811  1.0000
  H   H119      1.0  0.63970  0.46860  0.37860  1.0000
  C   C207      1.0  0.84991  0.36100  0.44799  1.0000
  O   O71       1.0  0.28428  0.46681  0.31053  1.0000
  O   O72       1.0  0.26131  0.56524  0.32703  1.0000
  O   O73       1.0  0.57863  0.52246  0.45865  1.0000
  O   O74       1.0  0.86081  0.32530  0.41204  1.0000
  O   O75       1.0  0.89960  0.36071  0.48471  1.0000
  C   C208      1.0  0.30167  0.51526  0.33394  1.0000
  C   C209      1.0  0.37280  0.51565  0.36872  1.0000
  C   C210      1.0  0.40735  0.57170  0.38322  1.0000
  H   H120      1.0  0.38290  0.60960  0.37280  1.0000
  C   C211      1.0  0.58049  0.28306  0.10414  1.0000
  C   C212      1.0  0.65901  0.27693  0.13192  1.0000
  C   C213      1.0  0.69236  0.32602  0.15863  1.0000
  H   H121      1.0  0.66520  0.36510  0.15890  1.0000
  C   C214      1.0  0.76476  0.31852  0.18482  1.0000
  H   H122      1.0  0.78730  0.35200  0.20330  1.0000
  C   C215      1.0  0.80387  0.26124  0.18353  1.0000
  C   C216      1.0  0.77411  0.21276  0.15526  1.0000
  H   H123      1.0  0.80290  0.17440  0.15360  1.0000
  C   C217      1.0  0.70187  0.22105  0.12945  1.0000
  H   H124      1.0  0.68100  0.18810  0.10970  1.0000
  C   C218      1.0  0.92536  0.29672  0.22261  1.0000
  C   C219      1.0  0.93597  0.31632  0.27084  1.0000
  H   H125      1.0  0.90560  0.29780  0.29700  1.0000
  C   C220      1.0  0.99162  0.36335  0.28036  1.0000
  H   H126      1.0  0.99960  0.37730  0.31340  1.0000
  C   C221      1.0  0.03599  0.39035  0.24194  1.0000
  C   C222      1.0  0.02541  0.36900  0.19406  1.0000
  H   H127      1.0  0.05650  0.38670  0.16780  1.0000
  C   C223      1.0  0.96979  0.32198  0.18400  1.0000
  H   H128      1.0  0.96230  0.30740  0.15110  1.0000
  C   C224      1.0  0.09414  0.44248  0.25104  1.0000
  O   O76       1.0  0.55530  0.33566  0.08983  1.0000
  O   O77       1.0  0.54033  0.23457  0.09317  1.0000
  O   O78       1.0  0.87135  0.24810  0.21310  1.0000
  O   O79       1.0  0.13245  0.46601  0.21554  1.0000
  O   O80       1.0  0.10541  0.46268  0.29476  1.0000
  N   N1        1.0  0.39594  0.09313  0.25600  1.0000
  N   N2        1.0  0.50910  0.14737  0.26742  1.0000
  N   N3        1.0  0.56475  0.18826  0.33961  1.0000
  N   N4        1.0  0.60967  0.22957  0.41368  1.0000
  N   N5        1.0  0.54958  0.22744  0.48658  1.0000
  C   C225      1.0  0.44518  0.11767  0.28920  1.0000
  H   H129      1.0  0.43710  0.11500  0.32400  1.0000
  C   C226      1.0  0.42869  0.10894  0.21067  1.0000
  H   H130      1.0  0.40610  0.09740  0.17950  1.0000
  C   C227      1.0  0.49727  0.14302  0.21680  1.0000
  H   H131      1.0  0.53070  0.16050  0.19150  1.0000
  C   C228      1.0  0.57613  0.17598  0.29176  1.0000
  C   C229      1.0  0.64799  0.18920  0.26631  1.0000
  H   H132      1.0  0.65410  0.17890  0.23230  1.0000
  C   C230      1.0  0.71002  0.21774  0.29236  1.0000
  H   H133      1.0  0.76030  0.22740  0.27620  1.0000
  C   C231      1.0  0.69974  0.23239  0.34172  1.0000
  H   H134      1.0  0.74150  0.25270  0.36020  1.0000
  C   C232      1.0  0.62571  0.21614  0.36304  1.0000
  C   C233      1.0  0.54935  0.20414  0.44174  1.0000
  H   H135      1.0  0.51190  0.17350  0.43040  1.0000
  C   C234      1.0  0.65090  0.27154  0.44335  1.0000
  H   H136      1.0  0.69670  0.29640  0.43430  1.0000
  C   C235      1.0  0.61303  0.27013  0.48758  1.0000
  H   H137      1.0  0.62770  0.29480  0.51540  1.0000
  N   N6        1.0  0.38528  0.21951  0.01699  1.0000
  N   N7        1.0  0.28409  0.15217  0.01058  1.0000
  N   N8        1.0  0.21911  0.09827  0.07349  1.0000
  N   N9        1.0  0.16266  0.04665  0.14021  1.0000
  N   N10       1.0  0.21470  0.03598  0.21504  1.0000
  C   C236      1.0  0.33627  0.18231  0.04144  1.0000
  H   H138      1.0  0.33720  0.17710  0.07640  1.0000
  C   C237      1.0  0.36343  0.21336  0.96787  1.0000
  H   H139      1.0  0.38830  0.23500  0.94110  1.0000
  C   C238      1.0  0.30169  0.17224  0.96351  1.0000
  H   H140      1.0  0.27540  0.15960  0.93370  1.0000
  C   C239      1.0  0.22010  0.11149  0.02543  1.0000
  C   C240      1.0  0.16384  0.08948  0.99160  1.0000
  H   H141      1.0  0.16720  0.10030  0.95750  1.0000
  C   C241      1.0  0.10259  0.05121  0.00917  1.0000
  H   H142      1.0  0.06230  0.03530  0.98710  1.0000
  C   C242      1.0  0.09979  0.03590  0.05888  1.0000
  H   H143      1.0  0.05840  0.00940  0.07180  1.0000
  C   C243      1.0  0.15972  0.06088  0.08883  1.0000
  C   C244      1.0  0.22689  0.05796  0.17050  1.0000
  H   H144      1.0  0.27520  0.07940  0.16060  1.0000
  C   C245      1.0  0.10556  0.01485  0.16806  1.0000
  H   H145      1.0  0.05360  0.00010  0.15720  1.0000
  C   C246      1.0  0.13810  0.00890  0.21378  1.0000
  H   H146      1.0  0.11210  0.98900  0.24100  1.0000
  C   C247      1.0  0.05482  0.88233  0.78920  1.0000
  H   H147      1.0  0.06290  0.88500  0.82400  1.0000
  C   C248      1.0  0.07131  0.89106  0.71067  1.0000
  H   H148      1.0  0.09390  0.90260  0.67950  1.0000
  C   C249      1.0  0.00273  0.85698  0.71680  1.0000
  H   H149      1.0  0.96930  0.83950  0.69150  1.0000
  C   C250      1.0  0.92387  0.82402  0.79176  1.0000
  C   C251      1.0  0.85201  0.81080  0.76631  1.0000
  H   H150      1.0  0.84590  0.82110  0.73230  1.0000
  C   C252      1.0  0.78998  0.78226  0.79236  1.0000
  H   H151      1.0  0.73970  0.77260  0.77620  1.0000
  C   C253      1.0  0.80026  0.76761  0.84172  1.0000
  H   H152      1.0  0.75850  0.74730  0.86020  1.0000
  C   C254      1.0  0.87429  0.78386  0.86304  1.0000
  C   C255      1.0  0.95065  0.79586  0.94174  1.0000
  H   H153      1.0  0.98810  0.82650  0.93040  1.0000
  C   C256      1.0  0.84910  0.72846  0.94335  1.0000
  H   H154      1.0  0.80330  0.70360  0.93430  1.0000
  C   C257      1.0  0.88697  0.72987  0.98758  1.0000
  H   H155      1.0  0.87230  0.70520  0.01540  1.0000
  N   N11       1.0  0.10406  0.90687  0.75600  1.0000
  N   N12       1.0  0.99090  0.85263  0.76742  1.0000
  N   N13       1.0  0.93525  0.81174  0.83961  1.0000
  N   N14       1.0  0.89033  0.77043  0.91368  1.0000
  N   N15       1.0  0.95042  0.77256  0.98658  1.0000
  C   C258      1.0  0.16373  0.81769  0.54144  1.0000
  H   H156      1.0  0.16280  0.82290  0.57640  1.0000
  C   C259      1.0  0.13657  0.78664  0.46787  1.0000
  H   H157      1.0  0.11170  0.76500  0.44110  1.0000
  C   C260      1.0  0.19831  0.82776  0.46351  1.0000
  H   H158      1.0  0.22460  0.84040  0.43370  1.0000
  C   C261      1.0  0.27990  0.88851  0.52543  1.0000
  C   C262      1.0  0.33616  0.91052  0.49160  1.0000
  H   H159      1.0  0.33280  0.89970  0.45750  1.0000
  C   C263      1.0  0.39741  0.94879  0.50917  1.0000
  H   H160      1.0  0.43770  0.96470  0.48710  1.0000
  C   C264      1.0  0.40021  0.96410  0.55888  1.0000
  H   H161      1.0  0.44160  0.99060  0.57180  1.0000
  C   C265      1.0  0.34028  0.93912  0.58883  1.0000
  C   C266      1.0  0.27311  0.94204  0.67050  1.0000
  H   H162      1.0  0.22480  0.92060  0.66060  1.0000
  C   C267      1.0  0.39444  0.98515  0.66806  1.0000
  H   H163      1.0  0.44640  0.99990  0.65720  1.0000
  C   C268      1.0  0.36190  0.99110  0.71378  1.0000
  H   H164      1.0  0.38790  0.01100  0.74100  1.0000
  N   N16       1.0  0.11472  0.78049  0.51699  1.0000
  N   N17       1.0  0.21591  0.84783  0.51058  1.0000
  N   N18       1.0  0.28089  0.90173  0.57349  1.0000
  N   N19       1.0  0.33734  0.95335  0.64021  1.0000
  N   N20       1.0  0.28530  0.96402  0.71504  1.0000
  C   C269      1.0  0.55482  0.61767  0.21080  1.0000
  H   H165      1.0  0.56290  0.61500  0.17600  1.0000
  C   C270      1.0  0.57131  0.60894  0.28933  1.0000
  H   H166      1.0  0.59390  0.59740  0.32050  1.0000
  C   C271      1.0  0.50273  0.64302  0.28320  1.0000
  H   H167      1.0  0.46930  0.66050  0.30850  1.0000
  C   C272      1.0  0.42387  0.67598  0.20824  1.0000
  C   C273      1.0  0.35201  0.68920  0.23369  1.0000
  H   H168      1.0  0.34590  0.67890  0.26770  1.0000
  C   C274      1.0  0.28998  0.71774  0.20764  1.0000
  H   H169      1.0  0.23970  0.72740  0.22380  1.0000
  C   C275      1.0  0.30026  0.73239  0.15828  1.0000
  H   H170      1.0  0.25850  0.75270  0.13980  1.0000
  C   C276      1.0  0.37429  0.71614  0.13696  1.0000
  C   C277      1.0  0.45065  0.70414  0.05826  1.0000
  H   H171      1.0  0.48810  0.67350  0.06960  1.0000
  C   C278      1.0  0.34910  0.77154  0.05665  1.0000
  H   H172      1.0  0.30330  0.79640  0.06570  1.0000
  C   C279      1.0  0.38697  0.77013  0.01242  1.0000
  H   H173      1.0  0.37230  0.79480  0.98460  1.0000
  N   N21       1.0  0.60406  0.59313  0.24400  1.0000
  N   N22       1.0  0.49090  0.64737  0.23258  1.0000
  N   N23       1.0  0.43525  0.68826  0.16039  1.0000
  N   N24       1.0  0.39033  0.72957  0.08632  1.0000
  N   N25       1.0  0.45042  0.72744  0.01342  1.0000
  C   C280      1.0  0.66373  0.68231  0.45856  1.0000
  H   H174      1.0  0.66280  0.67710  0.42360  1.0000
  C   C281      1.0  0.63657  0.71336  0.53213  1.0000
  H   H175      1.0  0.61170  0.73500  0.55890  1.0000
  C   C282      1.0  0.69831  0.67224  0.53649  1.0000
  H   H176      1.0  0.72460  0.65960  0.56630  1.0000
  C   C283      1.0  0.77990  0.61149  0.47457  1.0000
  C   C284      1.0  0.83616  0.58948  0.50840  1.0000
  H   H177      1.0  0.83280  0.60030  0.54250  1.0000
  C   C285      1.0  0.89741  0.55121  0.49083  1.0000
  H   H178      1.0  0.93770  0.53530  0.51290  1.0000
  C   C286      1.0  0.90021  0.53590  0.44112  1.0000
  H   H179      1.0  0.94160  0.50940  0.42820  1.0000
  C   C287      1.0  0.84028  0.56088  0.41117  1.0000
  C   C288      1.0  0.77311  0.55796  0.32950  1.0000
  H   H180      1.0  0.72480  0.57940  0.33940  1.0000
  C   C289      1.0  0.89444  0.51485  0.33194  1.0000
  H   H181      1.0  0.94640  0.50010  0.34280  1.0000
  C   C290      1.0  0.86190  0.50890  0.28622  1.0000
  H   H182      1.0  0.88790  0.48900  0.25900  1.0000
  N   N26       1.0  0.61472  0.71951  0.48301  1.0000
  N   N27       1.0  0.71591  0.65217  0.48942  1.0000
  N   N28       1.0  0.78089  0.59827  0.42651  1.0000
  N   N29       1.0  0.83734  0.54665  0.35979  1.0000
  N   N30       1.0  0.78530  0.53598  0.28496  1.0000
  N   N31       1.0  0.89594  0.40687  0.74400  1.0000
  N   N32       1.0  0.00910  0.35263  0.73258  1.0000
  N   N33       1.0  0.06475  0.31174  0.66039  1.0000
  N   N34       1.0  0.10967  0.27043  0.58632  1.0000
  N   N35       1.0  0.04958  0.27256  0.51342  1.0000
  C   C291      1.0  0.94518  0.38233  0.71080  1.0000
  H   H183      1.0  0.93710  0.38500  0.67600  1.0000
  C   C292      1.0  0.92869  0.39106  0.78933  1.0000
  H   H184      1.0  0.90610  0.40260  0.82050  1.0000
  C   C293      1.0  0.99727  0.35698  0.78320  1.0000
  H   H185      1.0  0.03070  0.33950  0.80850  1.0000
  C   C294      1.0  0.07613  0.32402  0.70824  1.0000
  C   C295      1.0  0.14799  0.31080  0.73369  1.0000
  H   H186      1.0  0.15410  0.32110  0.76770  1.0000
  C   C296      1.0  0.21002  0.28226  0.70764  1.0000
  H   H187      1.0  0.26030  0.27260  0.72380  1.0000
  C   C297      1.0  0.19974  0.26761  0.65828  1.0000
  H   H188      1.0  0.24150  0.24730  0.63980  1.0000
  C   C298      1.0  0.12571  0.28386  0.63696  1.0000
  C   C299      1.0  0.04935  0.29586  0.55826  1.0000
  H   H189      1.0  0.01190  0.32650  0.56960  1.0000
  C   C300      1.0  0.15090  0.22846  0.55665  1.0000
  H   H190      1.0  0.19670  0.20360  0.56570  1.0000
  C   C301      1.0  0.11303  0.22987  0.51242  1.0000
  H   H191      1.0  0.12770  0.20520  0.48460  1.0000
  C   C302      1.0  0.86343  0.28664  0.03213  1.0000
  H   H192      1.0  0.88830  0.26500  0.05890  1.0000
  C   C303      1.0  0.80169  0.32776  0.03649  1.0000
  H   H193      1.0  0.77540  0.34040  0.06630  1.0000
  C   C304      1.0  0.72010  0.38851  0.97457  1.0000
  C   C305      1.0  0.66384  0.41052  0.00840  1.0000
  H   H194      1.0  0.66720  0.39970  0.04250  1.0000
  C   C306      1.0  0.60259  0.44879  0.99083  1.0000
  H   H195      1.0  0.56230  0.46470  0.01290  1.0000
  C   C307      1.0  0.59979  0.46410  0.94112  1.0000
  H   H196      1.0  0.55840  0.49060  0.92820  1.0000
  C   C308      1.0  0.65972  0.43912  0.91117  1.0000
  C   C309      1.0  0.72689  0.44204  0.82950  1.0000
  H   H197      1.0  0.77520  0.42060  0.83940  1.0000
  C   C310      1.0  0.60556  0.48515  0.83194  1.0000
  H   H198      1.0  0.55360  0.49990  0.84280  1.0000
  C   C311      1.0  0.63810  0.49110  0.78622  1.0000
  H   H199      1.0  0.61210  0.51100  0.75900  1.0000
  N   N36       1.0  0.88528  0.28049  0.98301  1.0000
  N   N37       1.0  0.78409  0.34783  0.98942  1.0000
  N   N38       1.0  0.71911  0.40173  0.92651  1.0000
  N   N39       1.0  0.66266  0.45335  0.85979  1.0000
  N   N40       1.0  0.71470  0.46402  0.78496  1.0000
  C   C312      1.0  0.83627  0.31769  0.95856  1.0000
  H   H200      1.0  0.83720  0.32290  0.92360  1.0000
  N   N41       1.0  0.60406  0.90687  0.74400  1.0000
  N   N42       1.0  0.49090  0.85263  0.73258  1.0000
  N   N43       1.0  0.43525  0.81174  0.66039  1.0000
  N   N44       1.0  0.39033  0.77043  0.58632  1.0000
  N   N45       1.0  0.45042  0.77256  0.51342  1.0000
  C   C313      1.0  0.55482  0.88233  0.71080  1.0000
  H   H201      1.0  0.56290  0.88500  0.67600  1.0000
  C   C314      1.0  0.57131  0.89106  0.78933  1.0000
  H   H202      1.0  0.59390  0.90260  0.82050  1.0000
  C   C315      1.0  0.50273  0.85698  0.78320  1.0000
  H   H203      1.0  0.46930  0.83950  0.80850  1.0000
  C   C316      1.0  0.42387  0.82402  0.70824  1.0000
  C   C317      1.0  0.35201  0.81080  0.73369  1.0000
  H   H204      1.0  0.34590  0.82110  0.76770  1.0000
  C   C318      1.0  0.28998  0.78226  0.70764  1.0000
  H   H205      1.0  0.23970  0.77260  0.72380  1.0000
  C   C319      1.0  0.30026  0.76761  0.65828  1.0000
  H   H206      1.0  0.25850  0.74730  0.63980  1.0000
  C   C320      1.0  0.37429  0.78386  0.63696  1.0000
  C   C321      1.0  0.45065  0.79586  0.55826  1.0000
  H   H207      1.0  0.48810  0.82650  0.56960  1.0000
  C   C322      1.0  0.34910  0.72846  0.55665  1.0000
  H   H208      1.0  0.30330  0.70360  0.56570  1.0000
  C   C323      1.0  0.38697  0.72987  0.51242  1.0000
  H   H209      1.0  0.37230  0.70520  0.48460  1.0000
  N   N46       1.0  0.61472  0.78049  0.98301  1.0000
  N   N47       1.0  0.71591  0.84783  0.98942  1.0000
  N   N48       1.0  0.78089  0.90173  0.92651  1.0000
  N   N49       1.0  0.83734  0.95335  0.85979  1.0000
  N   N50       1.0  0.78530  0.96402  0.78496  1.0000
  C   C324      1.0  0.66373  0.81769  0.95856  1.0000
  H   H210      1.0  0.66280  0.82290  0.92360  1.0000
  C   C325      1.0  0.63657  0.78664  0.03213  1.0000
  H   H211      1.0  0.61170  0.76500  0.05890  1.0000
  C   C326      1.0  0.69831  0.82776  0.03649  1.0000
  H   H212      1.0  0.72460  0.84040  0.06630  1.0000
  C   C327      1.0  0.77990  0.88851  0.97457  1.0000
  C   C328      1.0  0.83616  0.91052  0.00840  1.0000
  H   H213      1.0  0.83280  0.89970  0.04250  1.0000
  C   C329      1.0  0.89741  0.94879  0.99083  1.0000
  H   H214      1.0  0.93770  0.96470  0.01290  1.0000
  C   C330      1.0  0.90021  0.96410  0.94112  1.0000
  H   H215      1.0  0.94160  0.99060  0.92820  1.0000
  C   C331      1.0  0.84028  0.93912  0.91117  1.0000
  C   C332      1.0  0.77311  0.94204  0.82950  1.0000
  H   H216      1.0  0.72480  0.92060  0.83940  1.0000
  C   C333      1.0  0.89444  0.98515  0.83194  1.0000
  H   H217      1.0  0.94640  0.99990  0.84280  1.0000
  C   C334      1.0  0.86190  0.99110  0.78622  1.0000
  H   H218      1.0  0.88790  0.01100  0.75900  1.0000
  N   N51       1.0  0.89594  0.09313  0.24400  1.0000
  N   N52       1.0  0.00910  0.14737  0.23258  1.0000
  N   N53       1.0  0.06475  0.18826  0.16039  1.0000
  N   N54       1.0  0.10967  0.22957  0.08632  1.0000
  N   N55       1.0  0.04958  0.22744  0.01342  1.0000
  C   C335      1.0  0.94518  0.11767  0.21080  1.0000
  H   H219      1.0  0.93710  0.11500  0.17600  1.0000
  C   C336      1.0  0.92869  0.10894  0.28933  1.0000
  H   H220      1.0  0.90610  0.09740  0.32050  1.0000
  C   C337      1.0  0.99727  0.14302  0.28320  1.0000
  H   H221      1.0  0.03070  0.16050  0.30850  1.0000
  C   C338      1.0  0.07613  0.17598  0.20824  1.0000
  C   C339      1.0  0.14799  0.18920  0.23369  1.0000
  H   H222      1.0  0.15410  0.17890  0.26770  1.0000
  C   C340      1.0  0.21002  0.21774  0.20764  1.0000
  H   H223      1.0  0.26030  0.22740  0.22380  1.0000
  C   C341      1.0  0.19974  0.23239  0.15828  1.0000
  H   H224      1.0  0.24150  0.25270  0.13980  1.0000
  C   C342      1.0  0.12571  0.21614  0.13696  1.0000
  C   C343      1.0  0.04935  0.20414  0.05826  1.0000
  H   H225      1.0  0.01190  0.17350  0.06960  1.0000
  C   C344      1.0  0.15090  0.27154  0.05665  1.0000
  H   H226      1.0  0.19670  0.29640  0.06570  1.0000
  C   C345      1.0  0.11303  0.27013  0.01242  1.0000
  H   H227      1.0  0.12770  0.29480  0.98460  1.0000
  N   N56       1.0  0.88528  0.21951  0.48301  1.0000
  N   N57       1.0  0.78409  0.15217  0.48942  1.0000
  N   N58       1.0  0.71911  0.09827  0.42651  1.0000
  N   N59       1.0  0.66266  0.04665  0.35979  1.0000
  N   N60       1.0  0.71470  0.03598  0.28496  1.0000
  C   C346      1.0  0.83627  0.18231  0.45856  1.0000
  H   H228      1.0  0.83720  0.17710  0.42360  1.0000
  C   C347      1.0  0.86343  0.21336  0.53213  1.0000
  H   H229      1.0  0.88830  0.23500  0.55890  1.0000
  C   C348      1.0  0.80169  0.17224  0.53649  1.0000
  H   H230      1.0  0.77540  0.15960  0.56630  1.0000
  C   C349      1.0  0.72010  0.11149  0.47457  1.0000
  C   C350      1.0  0.66384  0.08948  0.50840  1.0000
  H   H231      1.0  0.66720  0.10030  0.54250  1.0000
  C   C351      1.0  0.60259  0.05121  0.49083  1.0000
  H   H232      1.0  0.56230  0.03530  0.51290  1.0000
  C   C352      1.0  0.59979  0.03590  0.44112  1.0000
  H   H233      1.0  0.55840  0.00940  0.42820  1.0000
  C   C353      1.0  0.65972  0.06088  0.41117  1.0000
  C   C354      1.0  0.72689  0.05796  0.32950  1.0000
  H   H234      1.0  0.77520  0.07940  0.33940  1.0000
  C   C355      1.0  0.60556  0.01485  0.33194  1.0000
  H   H235      1.0  0.55360  0.00010  0.34280  1.0000
  C   C356      1.0  0.63810  0.00890  0.28622  1.0000
  H   H236      1.0  0.61210  0.98900  0.25900  1.0000
  N   N61       1.0  0.39594  0.40687  0.75600  1.0000
  N   N62       1.0  0.50910  0.35263  0.76742  1.0000
  N   N63       1.0  0.56475  0.31174  0.83961  1.0000
  N   N64       1.0  0.60967  0.27043  0.91368  1.0000
  N   N65       1.0  0.54958  0.27256  0.98658  1.0000
  C   C357      1.0  0.44518  0.38233  0.78920  1.0000
  H   H237      1.0  0.43710  0.38500  0.82400  1.0000
  C   C358      1.0  0.42869  0.39106  0.71067  1.0000
  H   H238      1.0  0.40610  0.40260  0.67950  1.0000
  C   C359      1.0  0.49727  0.35698  0.71680  1.0000
  H   H239      1.0  0.53070  0.33950  0.69150  1.0000
  C   C360      1.0  0.57613  0.32402  0.79176  1.0000
  C   C361      1.0  0.64799  0.31080  0.76631  1.0000
  H   H240      1.0  0.65410  0.32110  0.73230  1.0000
  C   C362      1.0  0.71002  0.28226  0.79236  1.0000
  H   H241      1.0  0.76030  0.27260  0.77620  1.0000
  C   C363      1.0  0.69974  0.26761  0.84172  1.0000
  H   H242      1.0  0.74150  0.24730  0.86020  1.0000
  C   C364      1.0  0.62571  0.28386  0.86304  1.0000
  C   C365      1.0  0.54935  0.29586  0.94174  1.0000
  H   H243      1.0  0.51190  0.32650  0.93040  1.0000
  C   C366      1.0  0.65090  0.22846  0.94335  1.0000
  H   H244      1.0  0.69670  0.20360  0.93430  1.0000
  C   C367      1.0  0.61303  0.22987  0.98758  1.0000
  H   H245      1.0  0.62770  0.20520  0.01540  1.0000
  N   N66       1.0  0.38528  0.28049  0.51699  1.0000
  N   N67       1.0  0.28409  0.34783  0.51058  1.0000
  N   N68       1.0  0.21911  0.40173  0.57349  1.0000
  N   N69       1.0  0.16266  0.45335  0.64021  1.0000
  N   N70       1.0  0.21470  0.46402  0.71504  1.0000
  C   C368      1.0  0.33627  0.31769  0.54144  1.0000
  H   H246      1.0  0.33720  0.32290  0.57640  1.0000
  C   C369      1.0  0.36343  0.28664  0.46787  1.0000
  H   H247      1.0  0.38830  0.26500  0.44110  1.0000
  C   C370      1.0  0.30169  0.32776  0.46351  1.0000
  H   H248      1.0  0.27540  0.34040  0.43370  1.0000
  C   C371      1.0  0.22010  0.38851  0.52543  1.0000
  C   C372      1.0  0.16384  0.41052  0.49160  1.0000
  H   H249      1.0  0.16720  0.39970  0.45750  1.0000
  C   C373      1.0  0.10259  0.44879  0.50917  1.0000
  H   H250      1.0  0.06230  0.46470  0.48710  1.0000
  C   C374      1.0  0.09979  0.46410  0.55888  1.0000
  H   H251      1.0  0.05840  0.49060  0.57180  1.0000
  C   C375      1.0  0.15972  0.43912  0.58883  1.0000
  C   C376      1.0  0.22689  0.44204  0.67050  1.0000
  H   H252      1.0  0.27520  0.42060  0.66060  1.0000
  C   C377      1.0  0.10556  0.48515  0.66806  1.0000
  H   H253      1.0  0.05360  0.49990  0.65720  1.0000
  C   C378      1.0  0.13810  0.49110  0.71378  1.0000
  H   H254      1.0  0.11210  0.51100  0.74100  1.0000
  C   C379      1.0  0.05482  0.61767  0.28920  1.0000
  H   H255      1.0  0.06290  0.61500  0.32400  1.0000
  C   C380      1.0  0.07131  0.60894  0.21067  1.0000
  H   H256      1.0  0.09390  0.59740  0.17950  1.0000
  C   C381      1.0  0.00273  0.64302  0.21680  1.0000
  H   H257      1.0  0.96930  0.66050  0.19150  1.0000
  C   C382      1.0  0.92387  0.67598  0.29176  1.0000
  C   C383      1.0  0.85201  0.68920  0.26631  1.0000
  H   H258      1.0  0.84590  0.67890  0.23230  1.0000
  C   C384      1.0  0.78998  0.71774  0.29236  1.0000
  H   H259      1.0  0.73970  0.72740  0.27620  1.0000
  C   C385      1.0  0.80026  0.73239  0.34172  1.0000
  H   H260      1.0  0.75850  0.75270  0.36020  1.0000
  C   C386      1.0  0.87429  0.71614  0.36304  1.0000
  C   C387      1.0  0.95065  0.70414  0.44174  1.0000
  H   H261      1.0  0.98810  0.67350  0.43040  1.0000
  C   C388      1.0  0.84910  0.77154  0.44335  1.0000
  H   H262      1.0  0.80330  0.79640  0.43430  1.0000
  C   C389      1.0  0.88697  0.77013  0.48758  1.0000
  H   H263      1.0  0.87230  0.79480  0.51540  1.0000
  N   N71       1.0  0.10406  0.59313  0.25600  1.0000
  N   N72       1.0  0.99090  0.64737  0.26742  1.0000
  N   N73       1.0  0.93525  0.68826  0.33961  1.0000
  N   N74       1.0  0.89033  0.72957  0.41368  1.0000
  N   N75       1.0  0.95042  0.72744  0.48658  1.0000
  C   C390      1.0  0.16373  0.68231  0.04144  1.0000
  H   H264      1.0  0.16280  0.67710  0.07640  1.0000
  C   C391      1.0  0.13657  0.71336  0.96787  1.0000
  H   H265      1.0  0.11170  0.73500  0.94110  1.0000
  C   C392      1.0  0.19831  0.67224  0.96351  1.0000
  H   H266      1.0  0.22460  0.65960  0.93370  1.0000
  C   C393      1.0  0.27990  0.61149  0.02543  1.0000
  C   C394      1.0  0.33616  0.58948  0.99160  1.0000
  H   H267      1.0  0.33280  0.60030  0.95750  1.0000
  C   C395      1.0  0.39741  0.55121  0.00917  1.0000
  H   H268      1.0  0.43770  0.53530  0.98710  1.0000
  C   C396      1.0  0.40021  0.53590  0.05888  1.0000
  H   H269      1.0  0.44160  0.50940  0.07180  1.0000
  C   C397      1.0  0.34028  0.56088  0.08883  1.0000
  C   C398      1.0  0.27311  0.55796  0.17050  1.0000
  H   H270      1.0  0.22480  0.57940  0.16060  1.0000
  C   C399      1.0  0.39444  0.51485  0.16806  1.0000
  H   H271      1.0  0.44640  0.50010  0.15720  1.0000
  C   C400      1.0  0.36190  0.50890  0.21378  1.0000
  H   H272      1.0  0.38790  0.48900  0.24100  1.0000
  N   N76       1.0  0.11472  0.71951  0.01699  1.0000
  N   N77       1.0  0.21591  0.65217  0.01058  1.0000
  N   N78       1.0  0.28089  0.59827  0.07349  1.0000
  N   N79       1.0  0.33734  0.54665  0.14021  1.0000
  N   N80       1.0  0.28530  0.53598  0.21504  1.0000
  Co  Co1       1.0  0.30442  0.02647  0.26925  1.0000
  Co  Co2       1.0  0.53440  0.78683  0.45597  1.0000
  Co  Co3       1.0  0.80442  0.02647  0.23075  1.0000
  Co  Co4       1.0  0.03440  0.78683  0.04403  1.0000
  Co  Co5       1.0  0.69558  0.52647  0.23075  1.0000
  Co  Co6       1.0  0.46560  0.28683  0.04403  1.0000
  Co  Co7       1.0  0.19558  0.52647  0.26925  1.0000
  Co  Co8       1.0  0.96560  0.28683  0.45597  1.0000
  Co  Co9       1.0  0.69558  0.97353  0.73075  1.0000
  Co  Co10      1.0  0.46560  0.21317  0.54403  1.0000
  Co  Co11      1.0  0.19558  0.97353  0.76925  1.0000
  Co  Co12      1.0  0.96560  0.21317  0.95597  1.0000
  Co  Co13      1.0  0.30442  0.47353  0.76925  1.0000
  Co  Co14      1.0  0.53440  0.71317  0.95597  1.0000
  Co  Co15      1.0  0.80442  0.47353  0.73075  1.0000
  Co  Co16      1.0  0.03440  0.71317  0.54403  1.0000
