data_image0
_chemical_formula_structural       O2CHC4HO2CHC2O2CHC2O2CHC4HO2CHC2OC2HC2OCHO2CHC2O2CHC4H2C2HO2CHC2O2CHC2O2CHC2O2CHC6HC2HO2CHC2O2CHC2O2CHC2O2CHC2OHOHOHOHOHOHOHOHIn8
_chemical_formula_sum              "O40 C64 H32 In8"
_cell_length_a       15.5665
_cell_length_b       15.5665
_cell_length_c       12.3201
_cell_angle_alpha    90
_cell_angle_beta     90
_cell_angle_gamma    90

_space_group_name_H-M_alt    "P 1"
_space_group_IT_number       1

loop_
  _space_group_symop_operation_xyz
  'x, y, z'

loop_
  _atom_site_type_symbol
  _atom_site_label
  _atom_site_symmetry_multiplicity
  _atom_site_fract_x
  _atom_site_fract_y
  _atom_site_fract_z
  _atom_site_occupancy
  O   O1        1.0  0.20853  0.40768  0.00497  1.0000
  O   O2        1.0  0.11708  0.38895  0.86416  1.0000
  C   C1        1.0  0.06782  0.46332  0.13110  1.0000
  H   H1        1.0  0.11400  0.43980  0.16870  1.0000
  C   C2        1.0  0.06750  0.46143  0.01850  1.0000
  C   C3        1.0  0.13719  0.41598  0.95874  1.0000
  C   C4        1.0  0.00000  0.50000  0.31130  1.0000
  C   C5        1.0  0.00000  0.50000  0.53860  1.0000
  H   H2        1.0  0.00000  0.50000  0.61410  1.0000
  O   O3        1.0  0.79147  0.59232  0.00497  1.0000
  O   O4        1.0  0.88292  0.61105  0.86416  1.0000
  C   C6        1.0  0.93218  0.53668  0.13110  1.0000
  H   H3        1.0  0.88600  0.56020  0.16870  1.0000
  C   C7        1.0  0.93250  0.53857  0.01850  1.0000
  C   C8        1.0  0.86281  0.58402  0.95874  1.0000
  O   O5        1.0  0.90768  0.70853  0.49503  1.0000
  O   O6        1.0  0.88895  0.61708  0.63584  1.0000
  C   C9        1.0  0.96332  0.56782  0.36890  1.0000
  H   H4        1.0  0.93980  0.61400  0.33130  1.0000
  C   C10       1.0  0.96143  0.56750  0.48150  1.0000
  C   C11       1.0  0.91598  0.63719  0.54126  1.0000
  O   O7        1.0  0.09232  0.29147  0.49503  1.0000
  O   O8        1.0  0.11105  0.38292  0.63584  1.0000
  C   C12       1.0  0.03668  0.43218  0.36890  1.0000
  H   H5        1.0  0.06020  0.38600  0.33130  1.0000
  C   C13       1.0  0.03857  0.43250  0.48150  1.0000
  C   C14       1.0  0.08402  0.36281  0.54126  1.0000
  C   C15       1.0  0.00000  0.50000  0.18870  1.0000
  C   C16       1.0  0.00000  0.50000  0.96140  1.0000
  H   H6        1.0  0.00000  0.50000  0.88590  1.0000
  O   O9        1.0  0.70853  0.90768  0.50497  1.0000
  O   O10       1.0  0.61708  0.88895  0.36416  1.0000
  C   C17       1.0  0.56782  0.96332  0.63110  1.0000
  H   H7        1.0  0.61400  0.93980  0.66870  1.0000
  C   C18       1.0  0.56750  0.96143  0.51850  1.0000
  C   C19       1.0  0.63719  0.91598  0.45874  1.0000
  O   O11       1.0  0.29147  0.09232  0.50497  1.0000
  C   C20       1.0  0.50000  0.00000  0.81130  1.0000
  C   C21       1.0  0.43218  0.03668  0.63110  1.0000
  H   H8        1.0  0.38600  0.06020  0.66870  1.0000
  C   C22       1.0  0.43250  0.03857  0.51850  1.0000
  C   C23       1.0  0.36281  0.08402  0.45874  1.0000
  O   O12       1.0  0.38292  0.11105  0.36416  1.0000
  C   C24       1.0  0.50000  0.00000  0.03860  1.0000
  H   H9        1.0  0.50000  0.00000  0.11410  1.0000
  O   O13       1.0  0.40768  0.20853  0.99503  1.0000
  O   O14       1.0  0.38895  0.11708  0.13584  1.0000
  C   C25       1.0  0.46332  0.06782  0.86890  1.0000
  H   H10       1.0  0.43980  0.11400  0.83130  1.0000
  C   C26       1.0  0.46143  0.06750  0.98150  1.0000
  C   C27       1.0  0.41598  0.13719  0.04126  1.0000
  O   O15       1.0  0.59232  0.79147  0.99503  1.0000
  O   O16       1.0  0.61105  0.88292  0.13584  1.0000
  C   C28       1.0  0.53668  0.93218  0.86890  1.0000
  H   H11       1.0  0.56020  0.88600  0.83130  1.0000
  C   C29       1.0  0.53857  0.93250  0.98150  1.0000
  C   C30       1.0  0.58402  0.86281  0.04126  1.0000
  C   C31       1.0  0.50000  0.00000  0.68870  1.0000
  C   C32       1.0  0.50000  0.00000  0.46140  1.0000
  H   H12       1.0  0.50000  0.00000  0.38590  1.0000
  H   H13       1.0  0.50000  0.50000  0.13590  1.0000
  C   C33       1.0  0.50000  0.50000  0.56130  1.0000
  C   C34       1.0  0.50000  0.50000  0.78860  1.0000
  H   H14       1.0  0.50000  0.50000  0.86410  1.0000
  O   O17       1.0  0.59232  0.70853  0.25497  1.0000
  O   O18       1.0  0.61105  0.61708  0.11416  1.0000
  C   C35       1.0  0.53668  0.56782  0.38110  1.0000
  H   H15       1.0  0.56020  0.61400  0.41870  1.0000
  C   C36       1.0  0.53857  0.56750  0.26850  1.0000
  C   C37       1.0  0.58402  0.63719  0.20874  1.0000
  O   O19       1.0  0.40768  0.29147  0.25497  1.0000
  O   O20       1.0  0.38895  0.38292  0.11416  1.0000
  C   C38       1.0  0.46332  0.43218  0.38110  1.0000
  H   H16       1.0  0.43980  0.38600  0.41870  1.0000
  C   C39       1.0  0.46143  0.43250  0.26850  1.0000
  C   C40       1.0  0.41598  0.36281  0.20874  1.0000
  O   O21       1.0  0.29147  0.40768  0.74503  1.0000
  O   O22       1.0  0.38292  0.38895  0.88584  1.0000
  C   C41       1.0  0.43218  0.46332  0.61890  1.0000
  H   H17       1.0  0.38600  0.43980  0.58130  1.0000
  C   C42       1.0  0.43250  0.46143  0.73150  1.0000
  C   C43       1.0  0.36281  0.41598  0.79126  1.0000
  O   O23       1.0  0.70853  0.59232  0.74503  1.0000
  O   O24       1.0  0.61708  0.61105  0.88584  1.0000
  C   C44       1.0  0.56782  0.53668  0.61890  1.0000
  H   H18       1.0  0.61400  0.56020  0.58130  1.0000
  C   C45       1.0  0.56750  0.53857  0.73150  1.0000
  C   C46       1.0  0.63719  0.58402  0.79126  1.0000
  C   C47       1.0  0.50000  0.50000  0.43870  1.0000
  C   C48       1.0  0.50000  0.50000  0.21140  1.0000
  C   C49       1.0  0.00000  0.00000  0.93870  1.0000
  C   C50       1.0  0.00000  0.00000  0.71140  1.0000
  H   H19       1.0  0.00000  0.00000  0.63590  1.0000
  C   C51       1.0  0.00000  0.00000  0.06130  1.0000
  C   C52       1.0  0.00000  0.00000  0.28860  1.0000
  H   H20       1.0  0.00000  0.00000  0.36410  1.0000
  O   O25       1.0  0.09232  0.20853  0.75497  1.0000
  O   O26       1.0  0.11105  0.11708  0.61416  1.0000
  C   C53       1.0  0.03668  0.06782  0.88110  1.0000
  H   H21       1.0  0.06020  0.11400  0.91870  1.0000
  C   C54       1.0  0.03857  0.06750  0.76850  1.0000
  C   C55       1.0  0.08402  0.13719  0.70874  1.0000
  O   O27       1.0  0.90768  0.79147  0.75497  1.0000
  O   O28       1.0  0.88895  0.88292  0.61416  1.0000
  C   C56       1.0  0.96332  0.93218  0.88110  1.0000
  H   H22       1.0  0.93980  0.88600  0.91870  1.0000
  C   C57       1.0  0.96143  0.93250  0.76850  1.0000
  C   C58       1.0  0.91598  0.86281  0.70874  1.0000
  O   O29       1.0  0.79147  0.90768  0.24503  1.0000
  O   O30       1.0  0.88292  0.88895  0.38584  1.0000
  C   C59       1.0  0.93218  0.96332  0.11890  1.0000
  H   H23       1.0  0.88600  0.93980  0.08130  1.0000
  C   C60       1.0  0.93250  0.96143  0.23150  1.0000
  C   C61       1.0  0.86281  0.91598  0.29126  1.0000
  O   O31       1.0  0.20853  0.09232  0.24503  1.0000
  O   O32       1.0  0.11708  0.11105  0.38584  1.0000
  C   C62       1.0  0.06782  0.03668  0.11890  1.0000
  H   H24       1.0  0.11400  0.06020  0.08130  1.0000
  C   C63       1.0  0.06750  0.03857  0.23150  1.0000
  C   C64       1.0  0.13719  0.08402  0.29126  1.0000
  O   O33       1.0  0.24900  0.25000  0.12500  1.0000
  H   H25       1.0  0.19260  0.25000  0.12500  1.0000
  O   O34       1.0  0.74900  0.75000  0.62500  1.0000
  H   H26       1.0  0.69260  0.75000  0.62500  1.0000
  O   O35       1.0  0.25100  0.25000  0.62500  1.0000
  H   H27       1.0  0.30740  0.25000  0.62500  1.0000
  O   O36       1.0  0.75100  0.75000  0.12500  1.0000
  H   H28       1.0  0.80740  0.75000  0.12500  1.0000
  O   O37       1.0  0.75000  0.74900  0.37500  1.0000
  H   H29       1.0  0.75000  0.69260  0.37500  1.0000
  O   O38       1.0  0.25000  0.24900  0.87500  1.0000
  H   H30       1.0  0.25000  0.19260  0.87500  1.0000
  O   O39       1.0  0.75000  0.75100  0.87500  1.0000
  H   H31       1.0  0.75000  0.80740  0.87500  1.0000
  O   O40       1.0  0.25000  0.25100  0.37500  1.0000
  H   H32       1.0  0.25000  0.30740  0.37500  1.0000
  In  In1       1.0  0.31203  0.31203  0.00000  1.0000
  In  In2       1.0  0.81203  0.81203  0.50000  1.0000
  In  In3       1.0  0.18797  0.18797  0.50000  1.0000
  In  In4       1.0  0.68797  0.81203  0.25000  1.0000
  In  In5       1.0  0.81203  0.68797  0.75000  1.0000
  In  In6       1.0  0.18797  0.31203  0.75000  1.0000
  In  In7       1.0  0.31203  0.18797  0.25000  1.0000
  In  In8       1.0  0.68797  0.68797  0.00000  1.0000
