data_image0
_chemical_formula_structural       N2O4C3HCHCHC4HCHCHCN2O4C3HCHCHC4HCHCHCN2O4C3HCHCHC4HCHCHCN2O4C3HCHCHC4HCHCHCCu4
_chemical_formula_sum              "N8 O16 C48 H24 Cu4"
_cell_length_a       9.988
_cell_length_b       11.249
_cell_length_c       10.425
_cell_angle_alpha    90
_cell_angle_beta     100.234
_cell_angle_gamma    90

_space_group_name_H-M_alt    "P 1"
_space_group_IT_number       1

loop_
  _space_group_symop_operation_xyz
  'x, y, z'

loop_
  _atom_site_type_symbol
  _atom_site_label
  _atom_site_symmetry_multiplicity
  _atom_site_fract_x
  _atom_site_fract_y
  _atom_site_fract_z
  _atom_site_occupancy
  N   N1        1.0  0.53370  0.64260  0.62930  1.0000
  N   N2        1.0  0.72950  0.49010  0.64530  1.0000
  O   O1        1.0  0.77500  0.72992  0.34950  1.0000
  O   O2        1.0  0.76540  0.91855  0.40780  1.0000
  O   O3        1.0  0.90280  0.82349  0.72250  1.0000
  O   O4        1.0  0.03980  0.78990  0.58020  1.0000
  C   C1        1.0  0.64370  0.68000  0.58210  1.0000
  C   C2        1.0  0.63640  0.77880  0.50100  1.0000
  C   C3        1.0  0.51670  0.84500  0.48340  1.0000
  H   H1        1.0  0.50990  0.91370  0.43310  1.0000
  C   C4        1.0  0.40990  0.81020  0.53890  1.0000
  H   H2        1.0  0.33150  0.85630  0.52990  1.0000
  C   C5        1.0  0.41920  0.70680  0.60770  1.0000
  H   H3        1.0  0.34390  0.68000  0.64060  1.0000
  C   C6        1.0  0.73740  0.81120  0.41460  1.0000
  C   C7        1.0  0.76330  0.60280  0.61950  1.0000
  C   C8        1.0  0.89900  0.63580  0.63080  1.0000
  C   C9        1.0  0.99600  0.54560  0.64620  1.0000
  H   H4        1.0  0.08710  0.56410  0.64830  1.0000
  C   C10       1.0  0.95770  0.42930  0.65820  1.0000
  H   H5        1.0  0.02090  0.36810  0.66310  1.0000
  C   C11       1.0  0.82490  0.40590  0.66270  1.0000
  H   H6        1.0  0.79980  0.32840  0.67840  1.0000
  C   C12       1.0  0.95100  0.76190  0.64120  1.0000
  N   N3        1.0  0.96630  0.14260  0.87070  1.0000
  N   N4        1.0  0.77050  0.99010  0.85470  1.0000
  O   O5        1.0  0.72500  0.22992  0.15050  1.0000
  O   O6        1.0  0.73460  0.41855  0.09220  1.0000
  O   O7        1.0  0.59720  0.32349  0.77750  1.0000
  O   O8        1.0  0.46020  0.28990  0.91980  1.0000
  C   C13       1.0  0.85630  0.18000  0.91790  1.0000
  C   C14       1.0  0.86360  0.27880  0.99900  1.0000
  C   C15       1.0  0.98330  0.34500  0.01660  1.0000
  H   H7        1.0  0.99010  0.41370  0.06690  1.0000
  C   C16       1.0  0.09010  0.31020  0.96110  1.0000
  H   H8        1.0  0.16850  0.35630  0.97010  1.0000
  C   C17       1.0  0.08080  0.20680  0.89230  1.0000
  H   H9        1.0  0.15610  0.18000  0.85940  1.0000
  C   C18       1.0  0.76260  0.31120  0.08540  1.0000
  C   C19       1.0  0.73670  0.10280  0.88050  1.0000
  C   C20       1.0  0.60100  0.13580  0.86920  1.0000
  C   C21       1.0  0.50400  0.04560  0.85380  1.0000
  H   H10       1.0  0.41290  0.06410  0.85170  1.0000
  C   C22       1.0  0.54230  0.92930  0.84180  1.0000
  H   H11       1.0  0.47910  0.86810  0.83690  1.0000
  C   C23       1.0  0.67510  0.90590  0.83730  1.0000
  H   H12       1.0  0.70020  0.82840  0.82160  1.0000
  C   C24       1.0  0.54900  0.26190  0.85880  1.0000
  N   N5        1.0  0.46630  0.35740  0.37070  1.0000
  N   N6        1.0  0.27050  0.50990  0.35470  1.0000
  O   O9        1.0  0.22500  0.27008  0.65050  1.0000
  O   O10       1.0  0.23460  0.08145  0.59220  1.0000
  O   O11       1.0  0.09720  0.17651  0.27750  1.0000
  O   O12       1.0  0.96020  0.21010  0.41980  1.0000
  C   C25       1.0  0.35630  0.32000  0.41790  1.0000
  C   C26       1.0  0.36360  0.22120  0.49900  1.0000
  C   C27       1.0  0.48330  0.15500  0.51660  1.0000
  H   H13       1.0  0.49010  0.08630  0.56690  1.0000
  C   C28       1.0  0.59010  0.18980  0.46110  1.0000
  H   H14       1.0  0.66850  0.14370  0.47010  1.0000
  C   C29       1.0  0.58080  0.29320  0.39230  1.0000
  H   H15       1.0  0.65610  0.32000  0.35940  1.0000
  C   C30       1.0  0.26260  0.18880  0.58540  1.0000
  C   C31       1.0  0.23670  0.39720  0.38050  1.0000
  C   C32       1.0  0.10100  0.36420  0.36920  1.0000
  C   C33       1.0  0.00400  0.45440  0.35380  1.0000
  H   H16       1.0  0.91290  0.43590  0.35170  1.0000
  C   C34       1.0  0.04230  0.57070  0.34180  1.0000
  H   H17       1.0  0.97910  0.63190  0.33690  1.0000
  C   C35       1.0  0.17510  0.59410  0.33730  1.0000
  H   H18       1.0  0.20020  0.67160  0.32160  1.0000
  C   C36       1.0  0.04900  0.23810  0.35880  1.0000
  N   N7        1.0  0.03370  0.85740  0.12930  1.0000
  N   N8        1.0  0.22950  0.00990  0.14530  1.0000
  O   O13       1.0  0.27500  0.77008  0.84950  1.0000
  O   O14       1.0  0.26540  0.58145  0.90780  1.0000
  O   O15       1.0  0.40280  0.67651  0.22250  1.0000
  O   O16       1.0  0.53980  0.71010  0.08020  1.0000
  C   C37       1.0  0.14370  0.82000  0.08210  1.0000
  C   C38       1.0  0.13640  0.72120  0.00100  1.0000
  C   C39       1.0  0.01670  0.65500  0.98340  1.0000
  H   H19       1.0  0.00990  0.58630  0.93310  1.0000
  C   C40       1.0  0.90990  0.68980  0.03890  1.0000
  H   H20       1.0  0.83150  0.64370  0.02990  1.0000
  C   C41       1.0  0.91920  0.79320  0.10770  1.0000
  H   H21       1.0  0.84390  0.82000  0.14060  1.0000
  C   C42       1.0  0.23740  0.68880  0.91460  1.0000
  C   C43       1.0  0.26330  0.89720  0.11950  1.0000
  C   C44       1.0  0.39900  0.86420  0.13080  1.0000
  C   C45       1.0  0.49600  0.95440  0.14620  1.0000
  H   H22       1.0  0.58710  0.93590  0.14830  1.0000
  C   C46       1.0  0.45770  0.07070  0.15820  1.0000
  H   H23       1.0  0.52090  0.13190  0.16310  1.0000
  C   C47       1.0  0.32490  0.09410  0.16270  1.0000
  H   H24       1.0  0.29980  0.17160  0.17840  1.0000
  C   C48       1.0  0.45100  0.73810  0.14120  1.0000
  Cu  Cu1       1.0  0.55207  0.48279  0.71347  1.0000
  Cu  Cu2       1.0  0.05207  0.01721  0.21347  1.0000
  Cu  Cu3       1.0  0.44793  0.51721  0.28653  1.0000
  Cu  Cu4       1.0  0.94793  0.98279  0.78653  1.0000
