data_image0
_chemical_formula_structural       O4C3HC2HCHC3HC3HCHCHCHCHCHCHC2HO4C3HC2HCHC3HC3HCHCHCHCHCHCHC2HN2C4O4C3HC2HCHC3HC3HCHCHCHCHCHCHC2HO4C3HC2HCHC3HC3HCHCHCHCHCHCHC2HN2C4O4C3HC2HCHC3HC3HCHCHCHCHCHCHC2HO4C3HC2HCHC3HC3HCHCHCHCHCHCHC2HN2C4O4C3HC2HCHC3HC3HCHCHCHCHCHCHC2HO4C3HC2HCHC3HC3HCHCHCHCHCHCHC2HN2C4In4
_chemical_formula_sum              "O32 C176 H96 N8 In4"
_cell_length_a       10.7499
_cell_length_b       12.8409
_cell_length_c       36.2495
_cell_angle_alpha    90
_cell_angle_beta     90
_cell_angle_gamma    90

_space_group_name_H-M_alt    "P 1"
_space_group_IT_number       1

loop_
  _space_group_symop_operation_xyz
  'x, y, z'

loop_
  _atom_site_type_symbol
  _atom_site_label
  _atom_site_symmetry_multiplicity
  _atom_site_fract_x
  _atom_site_fract_y
  _atom_site_fract_z
  _atom_site_occupancy
  O   O1        1.0  0.35930  0.55730  0.14262  1.0000
  O   O2        1.0  0.35600  0.55870  0.55219  1.0000
  O   O3        1.0  0.38180  0.65180  0.60310  1.0000
  O   O4        1.0  0.39060  0.64620  0.09260  1.0000
  C   C1        1.0  0.40510  0.63650  0.56840  1.0000
  C   C2        1.0  0.40410  0.63390  0.12650  1.0000
  C   C3        1.0  0.58570  0.87350  0.54460  1.0000
  H   H1        1.0  0.60490  0.93820  0.55460  1.0000
  C   C4        1.0  0.62130  0.84770  0.18870  1.0000
  C   C5        1.0  0.51360  0.68580  0.18400  1.0000
  H   H2        1.0  0.48220  0.62610  0.19510  1.0000
  C   C6        1.0  0.68240  0.92160  0.24830  1.0000
  H   H3        1.0  0.63790  0.86870  0.25990  1.0000
  C   C7        1.0  0.49230  0.70550  0.14690  1.0000
  C   C8        1.0  0.68670  0.92860  0.21110  1.0000
  C   C9        1.0  0.58070  0.75490  0.20350  1.0000
  H   H4        1.0  0.60030  0.73960  0.22790  1.0000
  C   C10       1.0  0.68910  0.92570  0.48540  1.0000
  C   C11       1.0  0.62210  0.84790  0.50670  1.0000
  C   C12       1.0  0.69350  0.92230  0.44780  1.0000
  H   H5        1.0  0.65760  0.86640  0.43540  1.0000
  C   C13       1.0  0.58970  0.75310  0.49330  1.0000
  H   H6        1.0  0.61820  0.73400  0.47010  1.0000
  C   C14       1.0  0.53550  0.79800  0.13010  1.0000
  H   H7        1.0  0.51870  0.81270  0.10550  1.0000
  C   C15       1.0  0.52400  0.80180  0.56460  1.0000
  H   H8        1.0  0.51250  0.81210  0.58980  1.0000
  C   C16       1.0  0.74470  0.90730  0.36880  1.0000
  H   H9        1.0  0.73690  0.84520  0.38180  1.0000
  C   C17       1.0  0.60260  0.86450  0.15140  1.0000
  H   H10       1.0  0.63710  0.92330  0.14050  1.0000
  C   C18       1.0  0.51550  0.68290  0.51280  1.0000
  H   H11       1.0  0.49300  0.61910  0.50270  1.0000
  C   C19       1.0  0.47690  0.71120  0.54760  1.0000
  C   C20       1.0  0.75120  0.90690  0.32980  1.0000
  H   H12       1.0  0.75630  0.84410  0.31710  1.0000
  O   O5        1.0  0.14070  0.44270  0.14262  1.0000
  O   O6        1.0  0.14400  0.44130  0.55219  1.0000
  O   O7        1.0  0.11820  0.34820  0.60310  1.0000
  O   O8        1.0  0.10940  0.35380  0.09260  1.0000
  C   C21       1.0  0.09490  0.36350  0.56840  1.0000
  C   C22       1.0  0.09590  0.36610  0.12650  1.0000
  C   C23       1.0  0.91430  0.12650  0.54460  1.0000
  H   H13       1.0  0.89510  0.06180  0.55460  1.0000
  C   C24       1.0  0.87870  0.15230  0.18870  1.0000
  C   C25       1.0  0.98640  0.31420  0.18400  1.0000
  H   H14       1.0  0.01780  0.37390  0.19510  1.0000
  C   C26       1.0  0.81760  0.07840  0.24830  1.0000
  H   H15       1.0  0.86210  0.13130  0.25990  1.0000
  C   C27       1.0  0.00770  0.29450  0.14690  1.0000
  C   C28       1.0  0.81330  0.07140  0.21110  1.0000
  C   C29       1.0  0.91930  0.24510  0.20350  1.0000
  H   H16       1.0  0.89970  0.26040  0.22790  1.0000
  C   C30       1.0  0.81090  0.07430  0.48540  1.0000
  C   C31       1.0  0.87790  0.15210  0.50670  1.0000
  C   C32       1.0  0.80650  0.07770  0.44780  1.0000
  H   H17       1.0  0.84240  0.13360  0.43540  1.0000
  C   C33       1.0  0.91030  0.24690  0.49330  1.0000
  H   H18       1.0  0.88180  0.26600  0.47010  1.0000
  C   C34       1.0  0.96450  0.20200  0.13010  1.0000
  H   H19       1.0  0.98130  0.18730  0.10550  1.0000
  C   C35       1.0  0.97600  0.19820  0.56460  1.0000
  H   H20       1.0  0.98750  0.18790  0.58980  1.0000
  C   C36       1.0  0.75530  0.09270  0.36880  1.0000
  H   H21       1.0  0.76310  0.15480  0.38180  1.0000
  C   C37       1.0  0.89740  0.13550  0.15140  1.0000
  H   H22       1.0  0.86290  0.07670  0.14050  1.0000
  C   C38       1.0  0.98450  0.31710  0.51280  1.0000
  H   H23       1.0  0.00700  0.38090  0.50270  1.0000
  C   C39       1.0  0.02310  0.28880  0.54760  1.0000
  C   C40       1.0  0.74880  0.09310  0.32980  1.0000
  H   H24       1.0  0.74370  0.15590  0.31710  1.0000
  N   N1        1.0  0.75000  0.00000  0.19190  1.0000
  N   N2        1.0  0.75000  0.00000  0.50440  1.0000
  C   C41       1.0  0.75000  0.00000  0.38720  1.0000
  C   C42       1.0  0.75000  0.00000  0.31070  1.0000
  C   C43       1.0  0.75000  0.00000  0.42790  1.0000
  C   C44       1.0  0.75000  0.00000  0.26980  1.0000
  O   O9        1.0  0.64070  0.55730  0.35738  1.0000
  O   O10       1.0  0.64400  0.55870  0.94781  1.0000
  O   O11       1.0  0.61820  0.65180  0.89690  1.0000
  O   O12       1.0  0.60940  0.64620  0.40740  1.0000
  C   C45       1.0  0.59490  0.63650  0.93160  1.0000
  C   C46       1.0  0.59590  0.63390  0.37350  1.0000
  C   C47       1.0  0.41430  0.87350  0.95540  1.0000
  H   H25       1.0  0.39510  0.93820  0.94540  1.0000
  C   C48       1.0  0.37870  0.84770  0.31130  1.0000
  C   C49       1.0  0.48640  0.68580  0.31600  1.0000
  H   H26       1.0  0.51780  0.62610  0.30490  1.0000
  C   C50       1.0  0.31760  0.92160  0.25170  1.0000
  H   H27       1.0  0.36210  0.86870  0.24010  1.0000
  C   C51       1.0  0.50770  0.70550  0.35310  1.0000
  C   C52       1.0  0.31330  0.92860  0.28890  1.0000
  C   C53       1.0  0.41930  0.75490  0.29650  1.0000
  H   H28       1.0  0.39970  0.73960  0.27210  1.0000
  C   C54       1.0  0.31090  0.92570  0.01460  1.0000
  C   C55       1.0  0.37790  0.84790  0.99330  1.0000
  C   C56       1.0  0.30650  0.92230  0.05220  1.0000
  H   H29       1.0  0.34240  0.86640  0.06460  1.0000
  C   C57       1.0  0.41030  0.75310  0.00670  1.0000
  H   H30       1.0  0.38180  0.73400  0.02990  1.0000
  C   C58       1.0  0.46450  0.79800  0.36990  1.0000
  H   H31       1.0  0.48130  0.81270  0.39450  1.0000
  C   C59       1.0  0.47600  0.80180  0.93540  1.0000
  H   H32       1.0  0.48750  0.81210  0.91020  1.0000
  C   C60       1.0  0.25530  0.90730  0.13120  1.0000
  H   H33       1.0  0.26310  0.84520  0.11820  1.0000
  C   C61       1.0  0.39740  0.86450  0.34860  1.0000
  H   H34       1.0  0.36290  0.92330  0.35950  1.0000
  C   C62       1.0  0.48450  0.68290  0.98720  1.0000
  H   H35       1.0  0.50700  0.61910  0.99730  1.0000
  C   C63       1.0  0.52310  0.71120  0.95240  1.0000
  C   C64       1.0  0.24880  0.90690  0.17020  1.0000
  H   H36       1.0  0.24370  0.84410  0.18290  1.0000
  O   O13       1.0  0.85930  0.44270  0.35738  1.0000
  O   O14       1.0  0.85600  0.44130  0.94781  1.0000
  O   O15       1.0  0.88180  0.34820  0.89690  1.0000
  O   O16       1.0  0.89060  0.35380  0.40740  1.0000
  C   C65       1.0  0.90510  0.36350  0.93160  1.0000
  C   C66       1.0  0.90410  0.36610  0.37350  1.0000
  C   C67       1.0  0.08570  0.12650  0.95540  1.0000
  H   H37       1.0  0.10490  0.06180  0.94540  1.0000
  C   C68       1.0  0.12130  0.15230  0.31130  1.0000
  C   C69       1.0  0.01360  0.31420  0.31600  1.0000
  H   H38       1.0  0.98220  0.37390  0.30490  1.0000
  C   C70       1.0  0.18240  0.07840  0.25170  1.0000
  H   H39       1.0  0.13790  0.13130  0.24010  1.0000
  C   C71       1.0  0.99230  0.29450  0.35310  1.0000
  C   C72       1.0  0.18670  0.07140  0.28890  1.0000
  C   C73       1.0  0.08070  0.24510  0.29650  1.0000
  H   H40       1.0  0.10030  0.26040  0.27210  1.0000
  C   C74       1.0  0.18910  0.07430  0.01460  1.0000
  C   C75       1.0  0.12210  0.15210  0.99330  1.0000
  C   C76       1.0  0.19350  0.07770  0.05220  1.0000
  H   H41       1.0  0.15760  0.13360  0.06460  1.0000
  C   C77       1.0  0.08970  0.24690  0.00670  1.0000
  H   H42       1.0  0.11820  0.26600  0.02990  1.0000
  C   C78       1.0  0.03550  0.20200  0.36990  1.0000
  H   H43       1.0  0.01870  0.18730  0.39450  1.0000
  C   C79       1.0  0.02400  0.19820  0.93540  1.0000
  H   H44       1.0  0.01250  0.18790  0.91020  1.0000
  C   C80       1.0  0.24470  0.09270  0.13120  1.0000
  H   H45       1.0  0.23690  0.15480  0.11820  1.0000
  C   C81       1.0  0.10260  0.13550  0.34860  1.0000
  H   H46       1.0  0.13710  0.07670  0.35950  1.0000
  C   C82       1.0  0.01550  0.31710  0.98720  1.0000
  H   H47       1.0  0.99300  0.38090  0.99730  1.0000
  C   C83       1.0  0.97690  0.28880  0.95240  1.0000
  C   C84       1.0  0.25120  0.09310  0.17020  1.0000
  H   H48       1.0  0.25630  0.15590  0.18290  1.0000
  N   N3        1.0  0.25000  0.00000  0.30810  1.0000
  N   N4        1.0  0.25000  0.00000  0.99560  1.0000
  C   C85       1.0  0.25000  0.00000  0.11280  1.0000
  C   C86       1.0  0.25000  0.00000  0.18930  1.0000
  C   C87       1.0  0.25000  0.00000  0.07210  1.0000
  C   C88       1.0  0.25000  0.00000  0.23020  1.0000
  O   O17       1.0  0.64070  0.44270  0.85738  1.0000
  O   O18       1.0  0.64400  0.44130  0.44781  1.0000
  O   O19       1.0  0.61820  0.34820  0.39690  1.0000
  O   O20       1.0  0.60940  0.35380  0.90740  1.0000
  C   C89       1.0  0.59490  0.36350  0.43160  1.0000
  C   C90       1.0  0.59590  0.36610  0.87350  1.0000
  C   C91       1.0  0.41430  0.12650  0.45540  1.0000
  H   H49       1.0  0.39510  0.06180  0.44540  1.0000
  C   C92       1.0  0.37870  0.15230  0.81130  1.0000
  C   C93       1.0  0.48640  0.31420  0.81600  1.0000
  H   H50       1.0  0.51780  0.37390  0.80490  1.0000
  C   C94       1.0  0.31760  0.07840  0.75170  1.0000
  H   H51       1.0  0.36210  0.13130  0.74010  1.0000
  C   C95       1.0  0.50770  0.29450  0.85310  1.0000
  C   C96       1.0  0.31330  0.07140  0.78890  1.0000
  C   C97       1.0  0.41930  0.24510  0.79650  1.0000
  H   H52       1.0  0.39970  0.26040  0.77210  1.0000
  C   C98       1.0  0.31090  0.07430  0.51460  1.0000
  C   C99       1.0  0.37790  0.15210  0.49330  1.0000
  C   C100      1.0  0.30650  0.07770  0.55220  1.0000
  H   H53       1.0  0.34240  0.13360  0.56460  1.0000
  C   C101      1.0  0.41030  0.24690  0.50670  1.0000
  H   H54       1.0  0.38180  0.26600  0.52990  1.0000
  C   C102      1.0  0.46450  0.20200  0.86990  1.0000
  H   H55       1.0  0.48130  0.18730  0.89450  1.0000
  C   C103      1.0  0.47600  0.19820  0.43540  1.0000
  H   H56       1.0  0.48750  0.18790  0.41020  1.0000
  C   C104      1.0  0.25530  0.09270  0.63120  1.0000
  H   H57       1.0  0.26310  0.15480  0.61820  1.0000
  C   C105      1.0  0.39740  0.13550  0.84860  1.0000
  H   H58       1.0  0.36290  0.07670  0.85950  1.0000
  C   C106      1.0  0.48450  0.31710  0.48720  1.0000
  H   H59       1.0  0.50700  0.38090  0.49730  1.0000
  C   C107      1.0  0.52310  0.28880  0.45240  1.0000
  C   C108      1.0  0.24880  0.09310  0.67020  1.0000
  H   H60       1.0  0.24370  0.15590  0.68290  1.0000
  O   O21       1.0  0.85930  0.55730  0.85738  1.0000
  O   O22       1.0  0.85600  0.55870  0.44781  1.0000
  O   O23       1.0  0.88180  0.65180  0.39690  1.0000
  O   O24       1.0  0.89060  0.64620  0.90740  1.0000
  C   C109      1.0  0.90510  0.63650  0.43160  1.0000
  C   C110      1.0  0.90410  0.63390  0.87350  1.0000
  C   C111      1.0  0.08570  0.87350  0.45540  1.0000
  H   H61       1.0  0.10490  0.93820  0.44540  1.0000
  C   C112      1.0  0.12130  0.84770  0.81130  1.0000
  C   C113      1.0  0.01360  0.68580  0.81600  1.0000
  H   H62       1.0  0.98220  0.62610  0.80490  1.0000
  C   C114      1.0  0.18240  0.92160  0.75170  1.0000
  H   H63       1.0  0.13790  0.86870  0.74010  1.0000
  C   C115      1.0  0.99230  0.70550  0.85310  1.0000
  C   C116      1.0  0.18670  0.92860  0.78890  1.0000
  C   C117      1.0  0.08070  0.75490  0.79650  1.0000
  H   H64       1.0  0.10030  0.73960  0.77210  1.0000
  C   C118      1.0  0.18910  0.92570  0.51460  1.0000
  C   C119      1.0  0.12210  0.84790  0.49330  1.0000
  C   C120      1.0  0.19350  0.92230  0.55220  1.0000
  H   H65       1.0  0.15760  0.86640  0.56460  1.0000
  C   C121      1.0  0.08970  0.75310  0.50670  1.0000
  H   H66       1.0  0.11820  0.73400  0.52990  1.0000
  C   C122      1.0  0.03550  0.79800  0.86990  1.0000
  H   H67       1.0  0.01870  0.81270  0.89450  1.0000
  C   C123      1.0  0.02400  0.80180  0.43540  1.0000
  H   H68       1.0  0.01250  0.81210  0.41020  1.0000
  C   C124      1.0  0.24470  0.90730  0.63120  1.0000
  H   H69       1.0  0.23690  0.84520  0.61820  1.0000
  C   C125      1.0  0.10260  0.86450  0.84860  1.0000
  H   H70       1.0  0.13710  0.92330  0.85950  1.0000
  C   C126      1.0  0.01550  0.68290  0.48720  1.0000
  H   H71       1.0  0.99300  0.61910  0.49730  1.0000
  C   C127      1.0  0.97690  0.71120  0.45240  1.0000
  C   C128      1.0  0.25120  0.90690  0.67020  1.0000
  H   H72       1.0  0.25630  0.84410  0.68290  1.0000
  N   N5        1.0  0.25000  0.00000  0.80810  1.0000
  N   N6        1.0  0.25000  0.00000  0.49560  1.0000
  C   C129      1.0  0.25000  0.00000  0.61280  1.0000
  C   C130      1.0  0.25000  0.00000  0.68930  1.0000
  C   C131      1.0  0.25000  0.00000  0.57210  1.0000
  C   C132      1.0  0.25000  0.00000  0.73020  1.0000
  O   O25       1.0  0.35930  0.44270  0.64262  1.0000
  O   O26       1.0  0.35600  0.44130  0.05219  1.0000
  O   O27       1.0  0.38180  0.34820  0.10310  1.0000
  O   O28       1.0  0.39060  0.35380  0.59260  1.0000
  C   C133      1.0  0.40510  0.36350  0.06840  1.0000
  C   C134      1.0  0.40410  0.36610  0.62650  1.0000
  C   C135      1.0  0.58570  0.12650  0.04460  1.0000
  H   H73       1.0  0.60490  0.06180  0.05460  1.0000
  C   C136      1.0  0.62130  0.15230  0.68870  1.0000
  C   C137      1.0  0.51360  0.31420  0.68400  1.0000
  H   H74       1.0  0.48220  0.37390  0.69510  1.0000
  C   C138      1.0  0.68240  0.07840  0.74830  1.0000
  H   H75       1.0  0.63790  0.13130  0.75990  1.0000
  C   C139      1.0  0.49230  0.29450  0.64690  1.0000
  C   C140      1.0  0.68670  0.07140  0.71110  1.0000
  C   C141      1.0  0.58070  0.24510  0.70350  1.0000
  H   H76       1.0  0.60030  0.26040  0.72790  1.0000
  C   C142      1.0  0.68910  0.07430  0.98540  1.0000
  C   C143      1.0  0.62210  0.15210  0.00670  1.0000
  C   C144      1.0  0.69350  0.07770  0.94780  1.0000
  H   H77       1.0  0.65760  0.13360  0.93540  1.0000
  C   C145      1.0  0.58970  0.24690  0.99330  1.0000
  H   H78       1.0  0.61820  0.26600  0.97010  1.0000
  C   C146      1.0  0.53550  0.20200  0.63010  1.0000
  H   H79       1.0  0.51870  0.18730  0.60550  1.0000
  C   C147      1.0  0.52400  0.19820  0.06460  1.0000
  H   H80       1.0  0.51250  0.18790  0.08980  1.0000
  C   C148      1.0  0.74470  0.09270  0.86880  1.0000
  H   H81       1.0  0.73690  0.15480  0.88180  1.0000
  C   C149      1.0  0.60260  0.13550  0.65140  1.0000
  H   H82       1.0  0.63710  0.07670  0.64050  1.0000
  C   C150      1.0  0.51550  0.31710  0.01280  1.0000
  H   H83       1.0  0.49300  0.38090  0.00270  1.0000
  C   C151      1.0  0.47690  0.28880  0.04760  1.0000
  C   C152      1.0  0.75120  0.09310  0.82980  1.0000
  H   H84       1.0  0.75630  0.15590  0.81710  1.0000
  O   O29       1.0  0.14070  0.55730  0.64262  1.0000
  O   O30       1.0  0.14400  0.55870  0.05219  1.0000
  O   O31       1.0  0.11820  0.65180  0.10310  1.0000
  O   O32       1.0  0.10940  0.64620  0.59260  1.0000
  C   C153      1.0  0.09490  0.63650  0.06840  1.0000
  C   C154      1.0  0.09590  0.63390  0.62650  1.0000
  C   C155      1.0  0.91430  0.87350  0.04460  1.0000
  H   H85       1.0  0.89510  0.93820  0.05460  1.0000
  C   C156      1.0  0.87870  0.84770  0.68870  1.0000
  C   C157      1.0  0.98640  0.68580  0.68400  1.0000
  H   H86       1.0  0.01780  0.62610  0.69510  1.0000
  C   C158      1.0  0.81760  0.92160  0.74830  1.0000
  H   H87       1.0  0.86210  0.86870  0.75990  1.0000
  C   C159      1.0  0.00770  0.70550  0.64690  1.0000
  C   C160      1.0  0.81330  0.92860  0.71110  1.0000
  C   C161      1.0  0.91930  0.75490  0.70350  1.0000
  H   H88       1.0  0.89970  0.73960  0.72790  1.0000
  C   C162      1.0  0.81090  0.92570  0.98540  1.0000
  C   C163      1.0  0.87790  0.84790  0.00670  1.0000
  C   C164      1.0  0.80650  0.92230  0.94780  1.0000
  H   H89       1.0  0.84240  0.86640  0.93540  1.0000
  C   C165      1.0  0.91030  0.75310  0.99330  1.0000
  H   H90       1.0  0.88180  0.73400  0.97010  1.0000
  C   C166      1.0  0.96450  0.79800  0.63010  1.0000
  H   H91       1.0  0.98130  0.81270  0.60550  1.0000
  C   C167      1.0  0.97600  0.80180  0.06460  1.0000
  H   H92       1.0  0.98750  0.81210  0.08980  1.0000
  C   C168      1.0  0.75530  0.90730  0.86880  1.0000
  H   H93       1.0  0.76310  0.84520  0.88180  1.0000
  C   C169      1.0  0.89740  0.86450  0.65140  1.0000
  H   H94       1.0  0.86290  0.92330  0.64050  1.0000
  C   C170      1.0  0.98450  0.68290  0.01280  1.0000
  H   H95       1.0  0.00700  0.61910  0.00270  1.0000
  C   C171      1.0  0.02310  0.71120  0.04760  1.0000
  C   C172      1.0  0.74880  0.90690  0.82980  1.0000
  H   H96       1.0  0.74370  0.84410  0.81710  1.0000
  N   N7        1.0  0.75000  0.00000  0.69190  1.0000
  N   N8        1.0  0.75000  0.00000  0.00440  1.0000
  C   C173      1.0  0.75000  0.00000  0.88720  1.0000
  C   C174      1.0  0.75000  0.00000  0.81070  1.0000
  C   C175      1.0  0.75000  0.00000  0.92790  1.0000
  C   C176      1.0  0.75000  0.00000  0.76980  1.0000
  In  In1       1.0  0.25000  0.50000  0.09721  1.0000
  In  In2       1.0  0.75000  0.50000  0.40279  1.0000
  In  In3       1.0  0.75000  0.50000  0.90279  1.0000
  In  In4       1.0  0.25000  0.50000  0.59721  1.0000
