data_image0
_chemical_formula_structural       O8N2CHC2HC2HC7HCHCHC5HCHC4HCHCHCHCHC2HCHC5HCHCHCHCHCHCHCHCHO8N2CHC2HC2HC7HCHCHC5HCHC4HCHCHCHCHC2HCHC5HCHCHCHCHCHCHCHCHO8N2CHC2HC2HC7HCHCHC5HCHC4HCHCHCHCHC2HCHC5HCHCHCHCHCHCHCHCHO8N2CHC2HC2HC7HCHCHC5HCHC4HCHCHCHCHC2HCHC5HCHCHCHCHCHCHCHCHO8N2CHC2HC2HC7HCHCHC5HCHC4HCHCHCHCHC2HCHC5HCHCHCHCHCHCHCHCHO8N2CHC2HC2HC7HCHCHC5HCHC4HCHCHCHCHC2HCHC5HCHCHCHCHCHCHCHCH2C4HCHCHCHCHC2HCHC5HCHCHCHCHCHCHCHCHO8N2CHC2HC2HC7HCHCHC5HCO8N2CHC2HC2HC7HCHCHC5HCHC4HCHCHCHCHC2HCHC5HCHCHCHCHCHCHCHCHIn8
_chemical_formula_sum              "O64 N16 C352 H192 In8"
_cell_length_a       23.3502
_cell_length_b       24.8738
_cell_length_c       36.0125
_cell_angle_alpha    90
_cell_angle_beta     92.4016
_cell_angle_gamma    90

_space_group_name_H-M_alt    "P 1"
_space_group_IT_number       1

loop_
  _space_group_symop_operation_xyz
  'x, y, z'

loop_
  _atom_site_type_symbol
  _atom_site_label
  _atom_site_symmetry_multiplicity
  _atom_site_fract_x
  _atom_site_fract_y
  _atom_site_fract_z
  _atom_site_occupancy
  O   O1        1.0  0.84720  0.05280  0.44037  1.0000
  O   O2        1.0  0.84650  0.02180  0.84745  1.0000
  O   O3        1.0  0.81440  0.08300  0.38906  1.0000
  O   O4        1.0  0.44150  0.48317  0.44281  1.0000
  O   O5        1.0  0.45860  0.40580  0.90240  1.0000
  O   O6        1.0  0.43520  0.44570  0.85201  1.0000
  O   O7        1.0  0.45630  0.44390  0.39162  1.0000
  O   O8        1.0  0.82030  0.05390  0.89962  1.0000
  N   N1        1.0  0.63680  0.25920  0.48737  1.0000
  N   N2        1.0  0.63730  0.23520  0.80225  1.0000
  C   C1        1.0  0.55270  0.37990  0.50152  1.0000
  H   H1        1.0  0.56360  0.38700  0.52620  1.0000
  C   C2        1.0  0.60520  0.29330  0.50681  1.0000
  C   C3        1.0  0.51190  0.38620  0.81144  1.0000
  H   H2        1.0  0.49530  0.41650  0.80030  1.0000
  C   C4        1.0  0.77410  0.11900  0.44264  1.0000
  C   C5        1.0  0.60340  0.29030  0.54523  1.0000
  H   H3        1.0  0.58070  0.31420  0.55800  1.0000
  C   C6        1.0  0.57150  0.33370  0.48546  1.0000
  C   C7        1.0  0.60400  0.27080  0.78345  1.0000
  C   C8        1.0  0.50110  0.37500  0.84799  1.0000
  C   C9        1.0  0.46600  0.44690  0.42534  1.0000
  C   C10       1.0  0.50470  0.40850  0.44567  1.0000
  C   C11       1.0  0.66800  0.22170  0.50593  1.0000
  C   C12       1.0  0.66760  0.21620  0.54440  1.0000
  H   H4        1.0  0.68860  0.18910  0.55640  1.0000
  C   C13       1.0  0.60240  0.27320  0.74471  1.0000
  H   H5        1.0  0.57970  0.29890  0.73250  1.0000
  C   C14       1.0  0.54610  0.35400  0.79128  1.0000
  H   H6        1.0  0.55360  0.36350  0.76700  1.0000
  C   C15       1.0  0.63340  0.24720  0.60567  1.0000
  C   C16       1.0  0.63320  0.24150  0.68323  1.0000
  C   C17       1.0  0.63540  0.25190  0.56458  1.0000
  C   C18       1.0  0.46390  0.41050  0.86880  1.0000
  C   C19       1.0  0.55730  0.32630  0.44809  1.0000
  H   H7        1.0  0.56970  0.29570  0.43600  1.0000
  C   C20       1.0  0.77690  0.11840  0.48080  1.0000
  H   H8        1.0  0.80170  0.09490  0.49350  1.0000
  C   C21       1.0  0.81280  0.08330  0.42290  1.0000
  C   C22       1.0  0.70480  0.18590  0.48372  1.0000
  C   C23       1.0  0.57010  0.30750  0.80629  1.0000
  C   C24       1.0  0.73760  0.15340  0.42640  1.0000
  H   H9        1.0  0.73590  0.15540  0.40060  1.0000
  C   C25       1.0  0.51810  0.41620  0.48220  1.0000
  H   H10       1.0  0.50400  0.44610  0.49440  1.0000
  C   C26       1.0  0.74300  0.15260  0.50001  1.0000
  H   H11       1.0  0.74680  0.15260  0.52580  1.0000
  C   C27       1.0  0.70190  0.18610  0.44590  1.0000
  H   H12       1.0  0.67590  0.20850  0.43320  1.0000
  C   C28       1.0  0.52480  0.32970  0.86280  1.0000
  H   H13       1.0  0.51830  0.32090  0.88740  1.0000
  C   C29       1.0  0.63350  0.23850  0.72454  1.0000
  C   C30       1.0  0.52480  0.36420  0.42878  1.0000
  H   H14       1.0  0.51650  0.35920  0.40350  1.0000
  C   C31       1.0  0.66800  0.20190  0.74422  1.0000
  H   H15       1.0  0.69040  0.17770  0.73150  1.0000
  C   C32       1.0  0.77770  0.09170  0.84420  1.0000
  C   C33       1.0  0.66920  0.20150  0.78270  1.0000
  C   C34       1.0  0.81610  0.05390  0.86530  1.0000
  C   C35       1.0  0.70540  0.16160  0.80437  1.0000
  C   C36       1.0  0.62680  0.29080  0.62680  1.0000
  H   H16       1.0  0.62390  0.32450  0.61580  1.0000
  C   C37       1.0  0.55880  0.29580  0.84180  1.0000
  H   H17       1.0  0.57390  0.26460  0.85250  1.0000
  C   C38       1.0  0.62420  0.28580  0.66530  1.0000
  H   H18       1.0  0.61540  0.31630  0.67890  1.0000
  C   C39       1.0  0.73870  0.12480  0.78780  1.0000
  H   H19       1.0  0.73430  0.12010  0.76220  1.0000
  C   C40       1.0  0.70760  0.16210  0.84170  1.0000
  H   H20       1.0  0.68500  0.18620  0.85440  1.0000
  C   C41       1.0  0.74320  0.12680  0.86150  1.0000
  H   H21       1.0  0.74350  0.12720  0.88730  1.0000
  C   C42       1.0  0.63800  0.19820  0.62400  1.0000
  H   H22       1.0  0.64270  0.16710  0.61000  1.0000
  C   C43       1.0  0.63600  0.19400  0.66140  1.0000
  H   H23       1.0  0.63650  0.16040  0.67270  1.0000
  C   C44       1.0  0.77940  0.09380  0.80750  1.0000
  H   H24       1.0  0.80720  0.07490  0.79510  1.0000
  O   O9        1.0  0.34720  0.55280  0.44037  1.0000
  O   O10       1.0  0.34650  0.52180  0.84745  1.0000
  O   O11       1.0  0.31440  0.58300  0.38906  1.0000
  O   O12       1.0  0.94150  0.98317  0.44281  1.0000
  O   O13       1.0  0.95860  0.90580  0.90240  1.0000
  O   O14       1.0  0.93520  0.94570  0.85201  1.0000
  O   O15       1.0  0.95630  0.94390  0.39162  1.0000
  O   O16       1.0  0.32030  0.55390  0.89962  1.0000
  N   N3        1.0  0.13680  0.75920  0.48737  1.0000
  N   N4        1.0  0.13730  0.73520  0.80225  1.0000
  C   C45       1.0  0.05270  0.87990  0.50152  1.0000
  H   H25       1.0  0.06360  0.88700  0.52620  1.0000
  C   C46       1.0  0.10520  0.79330  0.50681  1.0000
  C   C47       1.0  0.01190  0.88620  0.81144  1.0000
  H   H26       1.0  0.99530  0.91650  0.80030  1.0000
  C   C48       1.0  0.27410  0.61900  0.44264  1.0000
  C   C49       1.0  0.10340  0.79030  0.54523  1.0000
  H   H27       1.0  0.08070  0.81420  0.55800  1.0000
  C   C50       1.0  0.07150  0.83370  0.48546  1.0000
  C   C51       1.0  0.10400  0.77080  0.78345  1.0000
  C   C52       1.0  0.00110  0.87500  0.84799  1.0000
  C   C53       1.0  0.96600  0.94690  0.42534  1.0000
  C   C54       1.0  0.00470  0.90850  0.44567  1.0000
  C   C55       1.0  0.16800  0.72170  0.50593  1.0000
  C   C56       1.0  0.16760  0.71620  0.54440  1.0000
  H   H28       1.0  0.18860  0.68910  0.55640  1.0000
  C   C57       1.0  0.10240  0.77320  0.74471  1.0000
  H   H29       1.0  0.07970  0.79890  0.73250  1.0000
  C   C58       1.0  0.04610  0.85400  0.79128  1.0000
  H   H30       1.0  0.05360  0.86350  0.76700  1.0000
  C   C59       1.0  0.13340  0.74720  0.60567  1.0000
  C   C60       1.0  0.13320  0.74150  0.68323  1.0000
  C   C61       1.0  0.13540  0.75190  0.56458  1.0000
  C   C62       1.0  0.96390  0.91050  0.86880  1.0000
  C   C63       1.0  0.05730  0.82630  0.44809  1.0000
  H   H31       1.0  0.06970  0.79570  0.43600  1.0000
  C   C64       1.0  0.27690  0.61840  0.48080  1.0000
  H   H32       1.0  0.30170  0.59490  0.49350  1.0000
  C   C65       1.0  0.31280  0.58330  0.42290  1.0000
  C   C66       1.0  0.20480  0.68590  0.48372  1.0000
  C   C67       1.0  0.07010  0.80750  0.80629  1.0000
  C   C68       1.0  0.23760  0.65340  0.42640  1.0000
  H   H33       1.0  0.23590  0.65540  0.40060  1.0000
  C   C69       1.0  0.01810  0.91620  0.48220  1.0000
  H   H34       1.0  0.00400  0.94610  0.49440  1.0000
  C   C70       1.0  0.24300  0.65260  0.50001  1.0000
  H   H35       1.0  0.24680  0.65260  0.52580  1.0000
  C   C71       1.0  0.20190  0.68610  0.44590  1.0000
  H   H36       1.0  0.17590  0.70850  0.43320  1.0000
  C   C72       1.0  0.02480  0.82970  0.86280  1.0000
  H   H37       1.0  0.01830  0.82090  0.88740  1.0000
  C   C73       1.0  0.13350  0.73850  0.72454  1.0000
  C   C74       1.0  0.02480  0.86420  0.42878  1.0000
  H   H38       1.0  0.01650  0.85920  0.40350  1.0000
  C   C75       1.0  0.16800  0.70190  0.74422  1.0000
  H   H39       1.0  0.19040  0.67770  0.73150  1.0000
  C   C76       1.0  0.27770  0.59170  0.84420  1.0000
  C   C77       1.0  0.16920  0.70150  0.78270  1.0000
  C   C78       1.0  0.31610  0.55390  0.86530  1.0000
  C   C79       1.0  0.20540  0.66160  0.80437  1.0000
  C   C80       1.0  0.12680  0.79080  0.62680  1.0000
  H   H40       1.0  0.12390  0.82450  0.61580  1.0000
  C   C81       1.0  0.05880  0.79580  0.84180  1.0000
  H   H41       1.0  0.07390  0.76460  0.85250  1.0000
  C   C82       1.0  0.12420  0.78580  0.66530  1.0000
  H   H42       1.0  0.11540  0.81630  0.67890  1.0000
  C   C83       1.0  0.23870  0.62480  0.78780  1.0000
  H   H43       1.0  0.23430  0.62010  0.76220  1.0000
  C   C84       1.0  0.20760  0.66210  0.84170  1.0000
  H   H44       1.0  0.18500  0.68620  0.85440  1.0000
  C   C85       1.0  0.24320  0.62680  0.86150  1.0000
  H   H45       1.0  0.24350  0.62720  0.88730  1.0000
  C   C86       1.0  0.13800  0.69820  0.62400  1.0000
  H   H46       1.0  0.14270  0.66710  0.61000  1.0000
  C   C87       1.0  0.13600  0.69400  0.66140  1.0000
  H   H47       1.0  0.13650  0.66040  0.67270  1.0000
  C   C88       1.0  0.27940  0.59380  0.80750  1.0000
  H   H48       1.0  0.30720  0.57490  0.79510  1.0000
  O   O17       1.0  0.15280  0.05280  0.05963  1.0000
  O   O18       1.0  0.15350  0.02180  0.65255  1.0000
  O   O19       1.0  0.18560  0.08300  0.11094  1.0000
  O   O20       1.0  0.55850  0.48317  0.05719  1.0000
  O   O21       1.0  0.54140  0.40580  0.59760  1.0000
  O   O22       1.0  0.56480  0.44570  0.64799  1.0000
  O   O23       1.0  0.54370  0.44390  0.10838  1.0000
  O   O24       1.0  0.17970  0.05390  0.60038  1.0000
  N   N5        1.0  0.36320  0.25920  0.01263  1.0000
  N   N6        1.0  0.36270  0.23520  0.69775  1.0000
  C   C89       1.0  0.44730  0.37990  0.99848  1.0000
  H   H49       1.0  0.43640  0.38700  0.97380  1.0000
  C   C90       1.0  0.39480  0.29330  0.99319  1.0000
  C   C91       1.0  0.48810  0.38620  0.68856  1.0000
  H   H50       1.0  0.50470  0.41650  0.69970  1.0000
  C   C92       1.0  0.22590  0.11900  0.05736  1.0000
  C   C93       1.0  0.39660  0.29030  0.95477  1.0000
  H   H51       1.0  0.41930  0.31420  0.94200  1.0000
  C   C94       1.0  0.42850  0.33370  0.01454  1.0000
  C   C95       1.0  0.39600  0.27080  0.71655  1.0000
  C   C96       1.0  0.49890  0.37500  0.65201  1.0000
  C   C97       1.0  0.53400  0.44690  0.07466  1.0000
  C   C98       1.0  0.49530  0.40850  0.05433  1.0000
  C   C99       1.0  0.33200  0.22170  0.99407  1.0000
  C   C100      1.0  0.33240  0.21620  0.95560  1.0000
  H   H52       1.0  0.31140  0.18910  0.94360  1.0000
  C   C101      1.0  0.39760  0.27320  0.75529  1.0000
  H   H53       1.0  0.42030  0.29890  0.76750  1.0000
  C   C102      1.0  0.45390  0.35400  0.70872  1.0000
  H   H54       1.0  0.44640  0.36350  0.73300  1.0000
  C   C103      1.0  0.36660  0.24720  0.89433  1.0000
  C   C104      1.0  0.36680  0.24150  0.81677  1.0000
  C   C105      1.0  0.36460  0.25190  0.93542  1.0000
  C   C106      1.0  0.53610  0.41050  0.63120  1.0000
  C   C107      1.0  0.44270  0.32630  0.05191  1.0000
  H   H55       1.0  0.43030  0.29570  0.06400  1.0000
  C   C108      1.0  0.22310  0.11840  0.01920  1.0000
  H   H56       1.0  0.19830  0.09490  0.00650  1.0000
  C   C109      1.0  0.18720  0.08330  0.07710  1.0000
  C   C110      1.0  0.29520  0.18590  0.01628  1.0000
  C   C111      1.0  0.42990  0.30750  0.69371  1.0000
  C   C112      1.0  0.26240  0.15340  0.07360  1.0000
  H   H57       1.0  0.26410  0.15540  0.09940  1.0000
  C   C113      1.0  0.48190  0.41620  0.01780  1.0000
  H   H58       1.0  0.49600  0.44610  0.00560  1.0000
  C   C114      1.0  0.25700  0.15260  0.99999  1.0000
  H   H59       1.0  0.25320  0.15260  0.97420  1.0000
  C   C115      1.0  0.29810  0.18610  0.05410  1.0000
  H   H60       1.0  0.32410  0.20850  0.06680  1.0000
  C   C116      1.0  0.47520  0.32970  0.63720  1.0000
  H   H61       1.0  0.48170  0.32090  0.61260  1.0000
  C   C117      1.0  0.36650  0.23850  0.77546  1.0000
  C   C118      1.0  0.47520  0.36420  0.07122  1.0000
  H   H62       1.0  0.48350  0.35920  0.09650  1.0000
  C   C119      1.0  0.33200  0.20190  0.75578  1.0000
  H   H63       1.0  0.30960  0.17770  0.76850  1.0000
  C   C120      1.0  0.22230  0.09170  0.65580  1.0000
  C   C121      1.0  0.33080  0.20150  0.71730  1.0000
  C   C122      1.0  0.18390  0.05390  0.63470  1.0000
  C   C123      1.0  0.29460  0.16160  0.69563  1.0000
  C   C124      1.0  0.37320  0.29080  0.87320  1.0000
  H   H64       1.0  0.37610  0.32450  0.88420  1.0000
  C   C125      1.0  0.44120  0.29580  0.65820  1.0000
  H   H65       1.0  0.42610  0.26460  0.64750  1.0000
  C   C126      1.0  0.37580  0.28580  0.83470  1.0000
  H   H66       1.0  0.38460  0.31630  0.82110  1.0000
  C   C127      1.0  0.26130  0.12480  0.71220  1.0000
  H   H67       1.0  0.26570  0.12010  0.73780  1.0000
  C   C128      1.0  0.29240  0.16210  0.65830  1.0000
  H   H68       1.0  0.31500  0.18620  0.64560  1.0000
  C   C129      1.0  0.25680  0.12680  0.63850  1.0000
  H   H69       1.0  0.25650  0.12720  0.61270  1.0000
  C   C130      1.0  0.36200  0.19820  0.87600  1.0000
  H   H70       1.0  0.35730  0.16710  0.89000  1.0000
  C   C131      1.0  0.36400  0.19400  0.83860  1.0000
  H   H71       1.0  0.36350  0.16040  0.82730  1.0000
  C   C132      1.0  0.22060  0.09380  0.69250  1.0000
  H   H72       1.0  0.19280  0.07490  0.70490  1.0000
  O   O25       1.0  0.65280  0.55280  0.05963  1.0000
  O   O26       1.0  0.65350  0.52180  0.65255  1.0000
  O   O27       1.0  0.68560  0.58300  0.11094  1.0000
  O   O28       1.0  0.05850  0.98317  0.05719  1.0000
  O   O29       1.0  0.04140  0.90580  0.59760  1.0000
  O   O30       1.0  0.06480  0.94570  0.64799  1.0000
  O   O31       1.0  0.04370  0.94390  0.10838  1.0000
  O   O32       1.0  0.67970  0.55390  0.60038  1.0000
  N   N7        1.0  0.86320  0.75920  0.01263  1.0000
  N   N8        1.0  0.86270  0.73520  0.69775  1.0000
  C   C133      1.0  0.94730  0.87990  0.99848  1.0000
  H   H73       1.0  0.93640  0.88700  0.97380  1.0000
  C   C134      1.0  0.89480  0.79330  0.99319  1.0000
  C   C135      1.0  0.98810  0.88620  0.68856  1.0000
  H   H74       1.0  0.00470  0.91650  0.69970  1.0000
  C   C136      1.0  0.72590  0.61900  0.05736  1.0000
  C   C137      1.0  0.89660  0.79030  0.95477  1.0000
  H   H75       1.0  0.91930  0.81420  0.94200  1.0000
  C   C138      1.0  0.92850  0.83370  0.01454  1.0000
  C   C139      1.0  0.89600  0.77080  0.71655  1.0000
  C   C140      1.0  0.99890  0.87500  0.65201  1.0000
  C   C141      1.0  0.03400  0.94690  0.07466  1.0000
  C   C142      1.0  0.99530  0.90850  0.05433  1.0000
  C   C143      1.0  0.83200  0.72170  0.99407  1.0000
  C   C144      1.0  0.83240  0.71620  0.95560  1.0000
  H   H76       1.0  0.81140  0.68910  0.94360  1.0000
  C   C145      1.0  0.89760  0.77320  0.75529  1.0000
  H   H77       1.0  0.92030  0.79890  0.76750  1.0000
  C   C146      1.0  0.95390  0.85400  0.70872  1.0000
  H   H78       1.0  0.94640  0.86350  0.73300  1.0000
  C   C147      1.0  0.86660  0.74720  0.89433  1.0000
  C   C148      1.0  0.86680  0.74150  0.81677  1.0000
  C   C149      1.0  0.86460  0.75190  0.93542  1.0000
  C   C150      1.0  0.03610  0.91050  0.63120  1.0000
  C   C151      1.0  0.94270  0.82630  0.05191  1.0000
  H   H79       1.0  0.93030  0.79570  0.06400  1.0000
  C   C152      1.0  0.72310  0.61840  0.01920  1.0000
  H   H80       1.0  0.69830  0.59490  0.00650  1.0000
  C   C153      1.0  0.68720  0.58330  0.07710  1.0000
  C   C154      1.0  0.79520  0.68590  0.01628  1.0000
  C   C155      1.0  0.92990  0.80750  0.69371  1.0000
  C   C156      1.0  0.76240  0.65340  0.07360  1.0000
  H   H81       1.0  0.76410  0.65540  0.09940  1.0000
  C   C157      1.0  0.98190  0.91620  0.01780  1.0000
  H   H82       1.0  0.99600  0.94610  0.00560  1.0000
  C   C158      1.0  0.75700  0.65260  0.99999  1.0000
  H   H83       1.0  0.75320  0.65260  0.97420  1.0000
  C   C159      1.0  0.79810  0.68610  0.05410  1.0000
  H   H84       1.0  0.82410  0.70850  0.06680  1.0000
  C   C160      1.0  0.97520  0.82970  0.63720  1.0000
  H   H85       1.0  0.98170  0.82090  0.61260  1.0000
  C   C161      1.0  0.86650  0.73850  0.77546  1.0000
  C   C162      1.0  0.97520  0.86420  0.07122  1.0000
  H   H86       1.0  0.98350  0.85920  0.09650  1.0000
  C   C163      1.0  0.83200  0.70190  0.75578  1.0000
  H   H87       1.0  0.80960  0.67770  0.76850  1.0000
  C   C164      1.0  0.72230  0.59170  0.65580  1.0000
  C   C165      1.0  0.83080  0.70150  0.71730  1.0000
  C   C166      1.0  0.68390  0.55390  0.63470  1.0000
  C   C167      1.0  0.79460  0.66160  0.69563  1.0000
  C   C168      1.0  0.87320  0.79080  0.87320  1.0000
  H   H88       1.0  0.87610  0.82450  0.88420  1.0000
  C   C169      1.0  0.94120  0.79580  0.65820  1.0000
  H   H89       1.0  0.92610  0.76460  0.64750  1.0000
  C   C170      1.0  0.87580  0.78580  0.83470  1.0000
  H   H90       1.0  0.88460  0.81630  0.82110  1.0000
  C   C171      1.0  0.76130  0.62480  0.71220  1.0000
  H   H91       1.0  0.76570  0.62010  0.73780  1.0000
  C   C172      1.0  0.79240  0.66210  0.65830  1.0000
  H   H92       1.0  0.81500  0.68620  0.64560  1.0000
  C   C173      1.0  0.75680  0.62680  0.63850  1.0000
  H   H93       1.0  0.75650  0.62720  0.61270  1.0000
  C   C174      1.0  0.86200  0.69820  0.87600  1.0000
  H   H94       1.0  0.85730  0.66710  0.89000  1.0000
  C   C175      1.0  0.86400  0.69400  0.83860  1.0000
  H   H95       1.0  0.86350  0.66040  0.82730  1.0000
  C   C176      1.0  0.72060  0.59380  0.69250  1.0000
  H   H96       1.0  0.69280  0.57490  0.70490  1.0000
  O   O33       1.0  0.15280  0.94720  0.55963  1.0000
  O   O34       1.0  0.15350  0.97820  0.15255  1.0000
  O   O35       1.0  0.18560  0.91700  0.61094  1.0000
  O   O36       1.0  0.55850  0.51683  0.55719  1.0000
  O   O37       1.0  0.54140  0.59420  0.09760  1.0000
  O   O38       1.0  0.56480  0.55430  0.14799  1.0000
  O   O39       1.0  0.54370  0.55610  0.60838  1.0000
  O   O40       1.0  0.17970  0.94610  0.10038  1.0000
  N   N9        1.0  0.36320  0.74080  0.51263  1.0000
  N   N10       1.0  0.36270  0.76480  0.19775  1.0000
  C   C177      1.0  0.44730  0.62010  0.49848  1.0000
  H   H97       1.0  0.43640  0.61300  0.47380  1.0000
  C   C178      1.0  0.39480  0.70670  0.49319  1.0000
  C   C179      1.0  0.48810  0.61380  0.18856  1.0000
  H   H98       1.0  0.50470  0.58350  0.19970  1.0000
  C   C180      1.0  0.22590  0.88100  0.55736  1.0000
  C   C181      1.0  0.39660  0.70970  0.45477  1.0000
  H   H99       1.0  0.41930  0.68580  0.44200  1.0000
  C   C182      1.0  0.42850  0.66630  0.51454  1.0000
  C   C183      1.0  0.39600  0.72920  0.21655  1.0000
  C   C184      1.0  0.49890  0.62500  0.15201  1.0000
  C   C185      1.0  0.53400  0.55310  0.57466  1.0000
  C   C186      1.0  0.49530  0.59150  0.55433  1.0000
  C   C187      1.0  0.33200  0.77830  0.49407  1.0000
  C   C188      1.0  0.33240  0.78380  0.45560  1.0000
  H   H100      1.0  0.31140  0.81090  0.44360  1.0000
  C   C189      1.0  0.39760  0.72680  0.25529  1.0000
  H   H101      1.0  0.42030  0.70110  0.26750  1.0000
  C   C190      1.0  0.45390  0.64600  0.20872  1.0000
  H   H102      1.0  0.44640  0.63650  0.23300  1.0000
  C   C191      1.0  0.36660  0.75280  0.39433  1.0000
  C   C192      1.0  0.36680  0.75850  0.31677  1.0000
  C   C193      1.0  0.36460  0.74810  0.43542  1.0000
  C   C194      1.0  0.53610  0.58950  0.13120  1.0000
  C   C195      1.0  0.44270  0.67370  0.55191  1.0000
  H   H103      1.0  0.43030  0.70430  0.56400  1.0000
  C   C196      1.0  0.22310  0.88160  0.51920  1.0000
  H   H104      1.0  0.19830  0.90510  0.50650  1.0000
  C   C197      1.0  0.18720  0.91670  0.57710  1.0000
  C   C198      1.0  0.29520  0.81410  0.51628  1.0000
  C   C199      1.0  0.42990  0.69250  0.19371  1.0000
  C   C200      1.0  0.26240  0.84660  0.57360  1.0000
  H   H105      1.0  0.26410  0.84460  0.59940  1.0000
  C   C201      1.0  0.48190  0.58380  0.51780  1.0000
  H   H106      1.0  0.49600  0.55390  0.50560  1.0000
  C   C202      1.0  0.25700  0.84740  0.49999  1.0000
  H   H107      1.0  0.25320  0.84740  0.47420  1.0000
  C   C203      1.0  0.29810  0.81390  0.55410  1.0000
  H   H108      1.0  0.32410  0.79150  0.56680  1.0000
  C   C204      1.0  0.47520  0.67030  0.13720  1.0000
  H   H109      1.0  0.48170  0.67910  0.11260  1.0000
  C   C205      1.0  0.36650  0.76150  0.27546  1.0000
  C   C206      1.0  0.47520  0.63580  0.57122  1.0000
  H   H110      1.0  0.48350  0.64080  0.59650  1.0000
  C   C207      1.0  0.33200  0.79810  0.25578  1.0000
  H   H111      1.0  0.30960  0.82230  0.26850  1.0000
  C   C208      1.0  0.22230  0.90830  0.15580  1.0000
  C   C209      1.0  0.33080  0.79850  0.21730  1.0000
  C   C210      1.0  0.18390  0.94610  0.13470  1.0000
  C   C211      1.0  0.29460  0.83840  0.19563  1.0000
  C   C212      1.0  0.37320  0.70920  0.37320  1.0000
  H   H112      1.0  0.37610  0.67550  0.38420  1.0000
  C   C213      1.0  0.44120  0.70420  0.15820  1.0000
  H   H113      1.0  0.42610  0.73540  0.14750  1.0000
  C   C214      1.0  0.37580  0.71420  0.33470  1.0000
  H   H114      1.0  0.38460  0.68370  0.32110  1.0000
  C   C215      1.0  0.26130  0.87520  0.21220  1.0000
  H   H115      1.0  0.26570  0.87990  0.23780  1.0000
  C   C216      1.0  0.29240  0.83790  0.15830  1.0000
  H   H116      1.0  0.31500  0.81380  0.14560  1.0000
  C   C217      1.0  0.25680  0.87320  0.13850  1.0000
  H   H117      1.0  0.25650  0.87280  0.11270  1.0000
  C   C218      1.0  0.36200  0.80180  0.37600  1.0000
  H   H118      1.0  0.35730  0.83290  0.39000  1.0000
  C   C219      1.0  0.36400  0.80600  0.33860  1.0000
  H   H119      1.0  0.36350  0.83960  0.32730  1.0000
  C   C220      1.0  0.22060  0.90620  0.19250  1.0000
  H   H120      1.0  0.19280  0.92510  0.20490  1.0000
  O   O41       1.0  0.65280  0.44720  0.55963  1.0000
  O   O42       1.0  0.65350  0.47820  0.15255  1.0000
  O   O43       1.0  0.68560  0.41700  0.61094  1.0000
  O   O44       1.0  0.05850  0.01683  0.55719  1.0000
  O   O45       1.0  0.04140  0.09420  0.09760  1.0000
  O   O46       1.0  0.06480  0.05430  0.14799  1.0000
  O   O47       1.0  0.04370  0.05610  0.60838  1.0000
  O   O48       1.0  0.67970  0.44610  0.10038  1.0000
  N   N11       1.0  0.86320  0.24080  0.51263  1.0000
  N   N12       1.0  0.86270  0.26480  0.19775  1.0000
  C   C221      1.0  0.94730  0.12010  0.49848  1.0000
  H   H121      1.0  0.93640  0.11300  0.47380  1.0000
  C   C222      1.0  0.89480  0.20670  0.49319  1.0000
  C   C223      1.0  0.98810  0.11380  0.18856  1.0000
  H   H122      1.0  0.00470  0.08350  0.19970  1.0000
  C   C224      1.0  0.72590  0.38100  0.55736  1.0000
  C   C225      1.0  0.89660  0.20970  0.45477  1.0000
  H   H123      1.0  0.91930  0.18580  0.44200  1.0000
  C   C226      1.0  0.92850  0.16630  0.51454  1.0000
  C   C227      1.0  0.89600  0.22920  0.21655  1.0000
  C   C228      1.0  0.99890  0.12500  0.15201  1.0000
  C   C229      1.0  0.03400  0.05310  0.57466  1.0000
  C   C230      1.0  0.99530  0.09150  0.55433  1.0000
  C   C231      1.0  0.83200  0.27830  0.49407  1.0000
  C   C232      1.0  0.83240  0.28380  0.45560  1.0000
  H   H124      1.0  0.81140  0.31090  0.44360  1.0000
  C   C233      1.0  0.89760  0.22680  0.25529  1.0000
  H   H125      1.0  0.92030  0.20110  0.26750  1.0000
  C   C234      1.0  0.95390  0.14600  0.20872  1.0000
  H   H126      1.0  0.94640  0.13650  0.23300  1.0000
  C   C235      1.0  0.86660  0.25280  0.39433  1.0000
  C   C236      1.0  0.86680  0.25850  0.31677  1.0000
  C   C237      1.0  0.86460  0.24810  0.43542  1.0000
  C   C238      1.0  0.03610  0.08950  0.13120  1.0000
  C   C239      1.0  0.94270  0.17370  0.55191  1.0000
  H   H127      1.0  0.93030  0.20430  0.56400  1.0000
  C   C240      1.0  0.72310  0.38160  0.51920  1.0000
  H   H128      1.0  0.69830  0.40510  0.50650  1.0000
  C   C241      1.0  0.68720  0.41670  0.57710  1.0000
  C   C242      1.0  0.79520  0.31410  0.51628  1.0000
  C   C243      1.0  0.92990  0.19250  0.19371  1.0000
  C   C244      1.0  0.76240  0.34660  0.57360  1.0000
  H   H129      1.0  0.76410  0.34460  0.59940  1.0000
  C   C245      1.0  0.98190  0.08380  0.51780  1.0000
  H   H130      1.0  0.99600  0.05390  0.50560  1.0000
  C   C246      1.0  0.75700  0.34740  0.49999  1.0000
  H   H131      1.0  0.75320  0.34740  0.47420  1.0000
  C   C247      1.0  0.79810  0.31390  0.55410  1.0000
  H   H132      1.0  0.82410  0.29150  0.56680  1.0000
  C   C248      1.0  0.97520  0.17030  0.13720  1.0000
  H   H133      1.0  0.98170  0.17910  0.11260  1.0000
  C   C249      1.0  0.86650  0.26150  0.27546  1.0000
  C   C250      1.0  0.97520  0.13580  0.57122  1.0000
  H   H134      1.0  0.98350  0.14080  0.59650  1.0000
  C   C251      1.0  0.83200  0.29810  0.25578  1.0000
  H   H135      1.0  0.80960  0.32230  0.26850  1.0000
  C   C252      1.0  0.72230  0.40830  0.15580  1.0000
  C   C253      1.0  0.83080  0.29850  0.21730  1.0000
  C   C254      1.0  0.68390  0.44610  0.13470  1.0000
  C   C255      1.0  0.79460  0.33840  0.19563  1.0000
  C   C256      1.0  0.87320  0.20920  0.37320  1.0000
  H   H136      1.0  0.87610  0.17550  0.38420  1.0000
  C   C257      1.0  0.94120  0.20420  0.15820  1.0000
  H   H137      1.0  0.92610  0.23540  0.14750  1.0000
  C   C258      1.0  0.87580  0.21420  0.33470  1.0000
  H   H138      1.0  0.88460  0.18370  0.32110  1.0000
  C   C259      1.0  0.76130  0.37520  0.21220  1.0000
  H   H139      1.0  0.76570  0.37990  0.23780  1.0000
  C   C260      1.0  0.79240  0.33790  0.15830  1.0000
  H   H140      1.0  0.81500  0.31380  0.14560  1.0000
  C   C261      1.0  0.75680  0.37320  0.13850  1.0000
  H   H141      1.0  0.75650  0.37280  0.11270  1.0000
  C   C262      1.0  0.86200  0.30180  0.37600  1.0000
  H   H142      1.0  0.85730  0.33290  0.39000  1.0000
  C   C263      1.0  0.86400  0.30600  0.33860  1.0000
  H   H143      1.0  0.86350  0.33960  0.32730  1.0000
  C   C264      1.0  0.72060  0.40620  0.19250  1.0000
  H   H144      1.0  0.69280  0.42510  0.20490  1.0000
  H   H145      1.0  0.80170  0.90510  0.99350  1.0000
  C   C265      1.0  0.81280  0.91670  0.92290  1.0000
  C   C266      1.0  0.70480  0.81410  0.98372  1.0000
  C   C267      1.0  0.57010  0.69250  0.30629  1.0000
  C   C268      1.0  0.73760  0.84660  0.92640  1.0000
  H   H146      1.0  0.73590  0.84460  0.90060  1.0000
  C   C269      1.0  0.51810  0.58380  0.98220  1.0000
  H   H147      1.0  0.50400  0.55390  0.99440  1.0000
  C   C270      1.0  0.74300  0.84740  0.00001  1.0000
  H   H148      1.0  0.74680  0.84740  0.02580  1.0000
  C   C271      1.0  0.70190  0.81390  0.94590  1.0000
  H   H149      1.0  0.67590  0.79150  0.93320  1.0000
  C   C272      1.0  0.52480  0.67030  0.36280  1.0000
  H   H150      1.0  0.51830  0.67910  0.38740  1.0000
  C   C273      1.0  0.63350  0.76150  0.22454  1.0000
  C   C274      1.0  0.52480  0.63580  0.92878  1.0000
  H   H151      1.0  0.51650  0.64080  0.90350  1.0000
  C   C275      1.0  0.66800  0.79810  0.24422  1.0000
  H   H152      1.0  0.69040  0.82230  0.23150  1.0000
  C   C276      1.0  0.77770  0.90830  0.34420  1.0000
  C   C277      1.0  0.66920  0.79850  0.28270  1.0000
  C   C278      1.0  0.81610  0.94610  0.36530  1.0000
  C   C279      1.0  0.70540  0.83840  0.30437  1.0000
  C   C280      1.0  0.62680  0.70920  0.12680  1.0000
  H   H153      1.0  0.62390  0.67550  0.11580  1.0000
  C   C281      1.0  0.55880  0.70420  0.34180  1.0000
  H   H154      1.0  0.57390  0.73540  0.35250  1.0000
  C   C282      1.0  0.62420  0.71420  0.16530  1.0000
  H   H155      1.0  0.61540  0.68370  0.17890  1.0000
  C   C283      1.0  0.73870  0.87520  0.28780  1.0000
  H   H156      1.0  0.73430  0.87990  0.26220  1.0000
  C   C284      1.0  0.70760  0.83790  0.34170  1.0000
  H   H157      1.0  0.68500  0.81380  0.35440  1.0000
  C   C285      1.0  0.74320  0.87320  0.36150  1.0000
  H   H158      1.0  0.74350  0.87280  0.38730  1.0000
  C   C286      1.0  0.63800  0.80180  0.12400  1.0000
  H   H159      1.0  0.64270  0.83290  0.11000  1.0000
  C   C287      1.0  0.63600  0.80600  0.16140  1.0000
  H   H160      1.0  0.63650  0.83960  0.17270  1.0000
  C   C288      1.0  0.77940  0.90620  0.30750  1.0000
  H   H161      1.0  0.80720  0.92510  0.29510  1.0000
  O   O49       1.0  0.84720  0.94720  0.94037  1.0000
  O   O50       1.0  0.84650  0.97820  0.34745  1.0000
  O   O51       1.0  0.81440  0.91700  0.88906  1.0000
  O   O52       1.0  0.44150  0.51683  0.94281  1.0000
  O   O53       1.0  0.45860  0.59420  0.40240  1.0000
  O   O54       1.0  0.43520  0.55430  0.35201  1.0000
  O   O55       1.0  0.45630  0.55610  0.89162  1.0000
  O   O56       1.0  0.82030  0.94610  0.39962  1.0000
  N   N13       1.0  0.63680  0.74080  0.98737  1.0000
  N   N14       1.0  0.63730  0.76480  0.30225  1.0000
  C   C289      1.0  0.55270  0.62010  0.00152  1.0000
  H   H162      1.0  0.56360  0.61300  0.02620  1.0000
  C   C290      1.0  0.60520  0.70670  0.00681  1.0000
  C   C291      1.0  0.51190  0.61380  0.31144  1.0000
  H   H163      1.0  0.49530  0.58350  0.30030  1.0000
  C   C292      1.0  0.77410  0.88100  0.94264  1.0000
  C   C293      1.0  0.60340  0.70970  0.04523  1.0000
  H   H164      1.0  0.58070  0.68580  0.05800  1.0000
  C   C294      1.0  0.57150  0.66630  0.98546  1.0000
  C   C295      1.0  0.60400  0.72920  0.28345  1.0000
  C   C296      1.0  0.50110  0.62500  0.34799  1.0000
  C   C297      1.0  0.46600  0.55310  0.92534  1.0000
  C   C298      1.0  0.50470  0.59150  0.94567  1.0000
  C   C299      1.0  0.66800  0.77830  0.00593  1.0000
  C   C300      1.0  0.66760  0.78380  0.04440  1.0000
  H   H165      1.0  0.68860  0.81090  0.05640  1.0000
  C   C301      1.0  0.60240  0.72680  0.24471  1.0000
  H   H166      1.0  0.57970  0.70110  0.23250  1.0000
  C   C302      1.0  0.54610  0.64600  0.29128  1.0000
  H   H167      1.0  0.55360  0.63650  0.26700  1.0000
  C   C303      1.0  0.63340  0.75280  0.10567  1.0000
  C   C304      1.0  0.63320  0.75850  0.18323  1.0000
  C   C305      1.0  0.63540  0.74810  0.06458  1.0000
  C   C306      1.0  0.46390  0.58950  0.36880  1.0000
  C   C307      1.0  0.55730  0.67370  0.94809  1.0000
  H   H168      1.0  0.56970  0.70430  0.93600  1.0000
  C   C308      1.0  0.77690  0.88160  0.98080  1.0000
  O   O57       1.0  0.34720  0.44720  0.94037  1.0000
  O   O58       1.0  0.34650  0.47820  0.34745  1.0000
  O   O59       1.0  0.31440  0.41700  0.88906  1.0000
  O   O60       1.0  0.94150  0.01683  0.94281  1.0000
  O   O61       1.0  0.95860  0.09420  0.40240  1.0000
  O   O62       1.0  0.93520  0.05430  0.35201  1.0000
  O   O63       1.0  0.95630  0.05610  0.89162  1.0000
  O   O64       1.0  0.32030  0.44610  0.39962  1.0000
  N   N15       1.0  0.13680  0.24080  0.98737  1.0000
  N   N16       1.0  0.13730  0.26480  0.30225  1.0000
  C   C309      1.0  0.05270  0.12010  0.00152  1.0000
  H   H169      1.0  0.06360  0.11300  0.02620  1.0000
  C   C310      1.0  0.10520  0.20670  0.00681  1.0000
  C   C311      1.0  0.01190  0.11380  0.31144  1.0000
  H   H170      1.0  0.99530  0.08350  0.30030  1.0000
  C   C312      1.0  0.27410  0.38100  0.94264  1.0000
  C   C313      1.0  0.10340  0.20970  0.04523  1.0000
  H   H171      1.0  0.08070  0.18580  0.05800  1.0000
  C   C314      1.0  0.07150  0.16630  0.98546  1.0000
  C   C315      1.0  0.10400  0.22920  0.28345  1.0000
  C   C316      1.0  0.00110  0.12500  0.34799  1.0000
  C   C317      1.0  0.96600  0.05310  0.92534  1.0000
  C   C318      1.0  0.00470  0.09150  0.94567  1.0000
  C   C319      1.0  0.16800  0.27830  0.00593  1.0000
  C   C320      1.0  0.16760  0.28380  0.04440  1.0000
  H   H172      1.0  0.18860  0.31090  0.05640  1.0000
  C   C321      1.0  0.10240  0.22680  0.24471  1.0000
  H   H173      1.0  0.07970  0.20110  0.23250  1.0000
  C   C322      1.0  0.04610  0.14600  0.29128  1.0000
  H   H174      1.0  0.05360  0.13650  0.26700  1.0000
  C   C323      1.0  0.13340  0.25280  0.10567  1.0000
  C   C324      1.0  0.13320  0.25850  0.18323  1.0000
  C   C325      1.0  0.13540  0.24810  0.06458  1.0000
  C   C326      1.0  0.96390  0.08950  0.36880  1.0000
  C   C327      1.0  0.05730  0.17370  0.94809  1.0000
  H   H175      1.0  0.06970  0.20430  0.93600  1.0000
  C   C328      1.0  0.27690  0.38160  0.98080  1.0000
  H   H176      1.0  0.30170  0.40510  0.99350  1.0000
  C   C329      1.0  0.31280  0.41670  0.92290  1.0000
  C   C330      1.0  0.20480  0.31410  0.98372  1.0000
  C   C331      1.0  0.07010  0.19250  0.30629  1.0000
  C   C332      1.0  0.23760  0.34660  0.92640  1.0000
  H   H177      1.0  0.23590  0.34460  0.90060  1.0000
  C   C333      1.0  0.01810  0.08380  0.98220  1.0000
  H   H178      1.0  0.00400  0.05390  0.99440  1.0000
  C   C334      1.0  0.24300  0.34740  0.00001  1.0000
  H   H179      1.0  0.24680  0.34740  0.02580  1.0000
  C   C335      1.0  0.20190  0.31390  0.94590  1.0000
  H   H180      1.0  0.17590  0.29150  0.93320  1.0000
  C   C336      1.0  0.02480  0.17030  0.36280  1.0000
  H   H181      1.0  0.01830  0.17910  0.38740  1.0000
  C   C337      1.0  0.13350  0.26150  0.22454  1.0000
  C   C338      1.0  0.02480  0.13580  0.92878  1.0000
  H   H182      1.0  0.01650  0.14080  0.90350  1.0000
  C   C339      1.0  0.16800  0.29810  0.24422  1.0000
  H   H183      1.0  0.19040  0.32230  0.23150  1.0000
  C   C340      1.0  0.27770  0.40830  0.34420  1.0000
  C   C341      1.0  0.16920  0.29850  0.28270  1.0000
  C   C342      1.0  0.31610  0.44610  0.36530  1.0000
  C   C343      1.0  0.20540  0.33840  0.30437  1.0000
  C   C344      1.0  0.12680  0.20920  0.12680  1.0000
  H   H184      1.0  0.12390  0.17550  0.11580  1.0000
  C   C345      1.0  0.05880  0.20420  0.34180  1.0000
  H   H185      1.0  0.07390  0.23540  0.35250  1.0000
  C   C346      1.0  0.12420  0.21420  0.16530  1.0000
  H   H186      1.0  0.11540  0.18370  0.17890  1.0000
  C   C347      1.0  0.23870  0.37520  0.28780  1.0000
  H   H187      1.0  0.23430  0.37990  0.26220  1.0000
  C   C348      1.0  0.20760  0.33790  0.34170  1.0000
  H   H188      1.0  0.18500  0.31380  0.35440  1.0000
  C   C349      1.0  0.24320  0.37320  0.36150  1.0000
  H   H189      1.0  0.24350  0.37280  0.38730  1.0000
  C   C350      1.0  0.13800  0.30180  0.12400  1.0000
  H   H190      1.0  0.14270  0.33290  0.11000  1.0000
  C   C351      1.0  0.13600  0.30600  0.16140  1.0000
  H   H191      1.0  0.13650  0.33960  0.17270  1.0000
  C   C352      1.0  0.27940  0.40620  0.30750  1.0000
  H   H192      1.0  0.30720  0.42510  0.29510  1.0000
  In  In1       1.0  0.39044  0.51604  0.39580  1.0000
  In  In2       1.0  0.89044  0.98396  0.89580  1.0000
  In  In3       1.0  0.10956  0.98396  0.60420  1.0000
  In  In4       1.0  0.10956  0.01604  0.10420  1.0000
  In  In5       1.0  0.89044  0.01604  0.39580  1.0000
  In  In6       1.0  0.39044  0.48396  0.89580  1.0000
  In  In7       1.0  0.60956  0.48396  0.60420  1.0000
  In  In8       1.0  0.60956  0.51604  0.10420  1.0000
