data_image0
_chemical_formula_structural       N3C3HC2HC5HC2HCHCHCHC2HCHOCHCHCHOCN3C3HC2HC5HC2HCHCHCHC2HCHOCHCHCHOCN3C3HC2HC5HC2HCHCHCHC2HCHOCHCHCHOCN3C3HC2HC5HC2HCHCHCHC2HCHOCHCHCHOCN3C3HC2HC5HC2HCHCHCHC2HCHOCHCHCHOCN3C3HC2HC5HC2HCHCHCHC2HCHOCHCHCHOCN3C3HC2HC5HC2HCHCHCHC2HCHOCHCHCHOCN3C3HC2HC5HC2HCHCHCHC2HCHOCHCHCHOC2HC2HC5HC2HCHCHCHC2HCHOCHCHCHOCN3C3HC2HC5HC2HCHCHCHC2HCHOCHCHCHOCN3C2N3C3HC2HC5HC2HCHCHCHC2HCHOCHCHCHOCN3C3HC2HC5HC2HCHCHCHC2HCHOCHCHCHOCN3C3HC2HC5HC2HCHCHCHC2HCHOCHCHCHOCN3C3HC2HC5HC2HCHCHCHC2HCHOCHCHCHOCN3C3HC2HC5HC2HCHCHCHC2HCHOCHCHCHOCN3C3HC2HC5HC2HCHCHCHC2HCHOCHCHCHOCN3C3HC2HC5HC2HCHCHCHC2HCHOCHCHCHOCN3C3HC2HC5HC2HCHCHCHC2HCHOCHCHCHOCCo9
_chemical_formula_sum              "N54 C396 H216 O36 Co9"
_cell_length_a       33.0267
_cell_length_b       33.0267
_cell_length_c       9.1815
_cell_angle_alpha    90
_cell_angle_beta     90
_cell_angle_gamma    120

_space_group_name_H-M_alt    "P 1"
_space_group_IT_number       1

loop_
  _space_group_symop_operation_xyz
  'x, y, z'

loop_
  _atom_site_type_symbol
  _atom_site_label
  _atom_site_symmetry_multiplicity
  _atom_site_fract_x
  _atom_site_fract_y
  _atom_site_fract_z
  _atom_site_occupancy
  N   N1        1.0  0.53449  0.53366  0.68910  1.0000
  N   N2        1.0  0.49885  0.44077  0.57480  1.0000
  N   N3        1.0  0.37701  0.24264  0.25800  1.0000
  C   C1        1.0  0.51550  0.43445  0.70240  1.0000
  C   C2        1.0  0.47449  0.39720  0.51030  1.0000
  C   C3        1.0  0.47710  0.36330  0.60140  1.0000
  H   H1        1.0  0.46350  0.33080  0.58200  1.0000
  C   C4        1.0  0.54071  0.46996  0.80680  1.0000
  C   C5        1.0  0.50257  0.38609  0.71990  1.0000
  H   H2        1.0  0.51040  0.37280  0.79930  1.0000
  C   C6        1.0  0.42396  0.33673  0.33240  1.0000
  C   C7        1.0  0.54999  0.51601  0.79720  1.0000
  C   C8        1.0  0.55930  0.45674  0.93320  1.0000
  C   C9        1.0  0.55478  0.58090  0.71360  1.0000
  C   C10       1.0  0.58350  0.59341  0.84290  1.0000
  H   H3        1.0  0.60120  0.62370  0.88440  1.0000
  C   C11       1.0  0.44987  0.38768  0.37810  1.0000
  C   C12       1.0  0.58040  0.55352  0.89290  1.0000
  H   H4        1.0  0.59560  0.55070  0.97680  1.0000
  C   C13       1.0  0.44130  0.32029  0.22570  1.0000
  H   H5        1.0  0.46950  0.34090  0.17640  1.0000
  C   C14       1.0  0.36040  0.25895  0.36030  1.0000
  H   H6        1.0  0.33200  0.23770  0.40770  1.0000
  C   C15       1.0  0.54400  0.45720  0.07340  1.0000
  H   H7        1.0  0.52160  0.46690  0.08910  1.0000
  C   C16       1.0  0.59390  0.43010  0.17150  1.0000
  C   C17       1.0  0.41690  0.27325  0.19180  1.0000
  H   H8        1.0  0.42900  0.26210  0.11790  1.0000
  C   C18       1.0  0.60990  0.43030  0.03150  1.0000
  H   H9        1.0  0.63280  0.42130  0.01670  1.0000
  O   O1        1.0  0.59790  0.41920  0.42740  1.0000
  C   C19       1.0  0.38260  0.30520  0.40040  1.0000
  H   H10       1.0  0.36970  0.31550  0.47420  1.0000
  C   C20       1.0  0.59330  0.44340  0.91390  1.0000
  H   H11       1.0  0.60480  0.44340  0.81900  1.0000
  C   C21       1.0  0.56110  0.44370  0.19220  1.0000
  H   H12       1.0  0.55010  0.44400  0.28750  1.0000
  O   O2        1.0  0.64070  0.40240  0.27790  1.0000
  C   C22       1.0  0.61320  0.41750  0.29910  1.0000
  N   N4        1.0  0.46551  0.46634  0.31090  1.0000
  N   N5        1.0  0.50115  0.55923  0.42520  1.0000
  N   N6        1.0  0.62299  0.75736  0.74200  1.0000
  C   C23       1.0  0.48450  0.56555  0.29760  1.0000
  C   C24       1.0  0.52551  0.60280  0.48970  1.0000
  C   C25       1.0  0.52290  0.63670  0.39860  1.0000
  H   H13       1.0  0.53650  0.66920  0.41800  1.0000
  C   C26       1.0  0.45929  0.53004  0.19320  1.0000
  C   C27       1.0  0.49743  0.61391  0.28010  1.0000
  H   H14       1.0  0.48960  0.62720  0.20070  1.0000
  C   C28       1.0  0.57604  0.66327  0.66760  1.0000
  C   C29       1.0  0.45001  0.48399  0.20280  1.0000
  C   C30       1.0  0.44070  0.54326  0.06680  1.0000
  C   C31       1.0  0.44522  0.41910  0.28640  1.0000
  C   C32       1.0  0.41650  0.40659  0.15710  1.0000
  H   H15       1.0  0.39880  0.37630  0.11560  1.0000
  C   C33       1.0  0.55013  0.61232  0.62190  1.0000
  C   C34       1.0  0.41960  0.44648  0.10710  1.0000
  H   H16       1.0  0.40440  0.44930  0.02320  1.0000
  C   C35       1.0  0.55870  0.67971  0.77430  1.0000
  H   H17       1.0  0.53050  0.65910  0.82360  1.0000
  C   C36       1.0  0.63960  0.74105  0.63970  1.0000
  H   H18       1.0  0.66800  0.76230  0.59230  1.0000
  C   C37       1.0  0.45600  0.54280  0.92660  1.0000
  H   H19       1.0  0.47840  0.53310  0.91090  1.0000
  C   C38       1.0  0.40610  0.56990  0.82850  1.0000
  C   C39       1.0  0.58310  0.72675  0.80820  1.0000
  H   H20       1.0  0.57100  0.73790  0.88210  1.0000
  C   C40       1.0  0.39010  0.56970  0.96850  1.0000
  H   H21       1.0  0.36720  0.57870  0.98330  1.0000
  O   O3        1.0  0.40210  0.58080  0.57260  1.0000
  C   C41       1.0  0.61740  0.69480  0.59960  1.0000
  H   H22       1.0  0.63030  0.68450  0.52580  1.0000
  C   C42       1.0  0.40670  0.55660  0.08610  1.0000
  H   H23       1.0  0.39520  0.55660  0.18100  1.0000
  C   C43       1.0  0.43890  0.55630  0.80780  1.0000
  H   H24       1.0  0.44990  0.55600  0.71250  1.0000
  O   O4        1.0  0.35930  0.59760  0.72210  1.0000
  C   C44       1.0  0.38680  0.58250  0.70090  1.0000
  N   N7        1.0  0.20116  0.86699  0.02243  1.0000
  N   N8        1.0  0.16552  0.77410  0.90813  1.0000
  N   N9        1.0  0.04368  0.57597  0.59133  1.0000
  C   C45       1.0  0.18217  0.76778  0.03573  1.0000
  C   C46       1.0  0.14116  0.73053  0.84363  1.0000
  C   C47       1.0  0.14377  0.69663  0.93473  1.0000
  H   H25       1.0  0.13017  0.66413  0.91533  1.0000
  C   C48       1.0  0.20738  0.80329  0.14013  1.0000
  C   C49       1.0  0.16924  0.71942  0.05323  1.0000
  H   H26       1.0  0.17707  0.70613  0.13263  1.0000
  C   C50       1.0  0.09063  0.67006  0.66573  1.0000
  C   C51       1.0  0.21666  0.84934  0.13053  1.0000
  C   C52       1.0  0.22597  0.79007  0.26653  1.0000
  C   C53       1.0  0.22145  0.91423  0.04693  1.0000
  C   C54       1.0  0.25017  0.92674  0.17623  1.0000
  H   H27       1.0  0.26787  0.95703  0.21773  1.0000
  C   C55       1.0  0.11654  0.72101  0.71143  1.0000
  C   C56       1.0  0.24707  0.88685  0.22623  1.0000
  H   H28       1.0  0.26227  0.88403  0.31013  1.0000
  C   C57       1.0  0.10797  0.65362  0.55903  1.0000
  H   H29       1.0  0.13617  0.67423  0.50973  1.0000
  C   C58       1.0  0.02707  0.59228  0.69363  1.0000
  H   H30       1.0  0.99867  0.57103  0.74103  1.0000
  C   C59       1.0  0.21067  0.79053  0.40673  1.0000
  H   H31       1.0  0.18827  0.80023  0.42243  1.0000
  C   C60       1.0  0.26057  0.76343  0.50483  1.0000
  C   C61       1.0  0.08357  0.60658  0.52513  1.0000
  H   H32       1.0  0.09567  0.59543  0.45123  1.0000
  C   C62       1.0  0.27657  0.76363  0.36483  1.0000
  H   H33       1.0  0.29947  0.75463  0.35003  1.0000
  O   O5        1.0  0.26457  0.75253  0.76073  1.0000
  C   C63       1.0  0.04927  0.63853  0.73373  1.0000
  H   H34       1.0  0.03637  0.64883  0.80753  1.0000
  C   C64       1.0  0.25997  0.77673  0.24723  1.0000
  H   H35       1.0  0.27147  0.77673  0.15233  1.0000
  C   C65       1.0  0.22777  0.77703  0.52553  1.0000
  H   H36       1.0  0.21677  0.77733  0.62083  1.0000
  O   O6        1.0  0.30737  0.73573  0.61123  1.0000
  C   C66       1.0  0.27987  0.75083  0.63243  1.0000
  N   N10       1.0  0.13218  0.79967  0.64423  1.0000
  N   N11       1.0  0.16782  0.89256  0.75853  1.0000
  N   N12       1.0  0.28966  0.09069  0.07533  1.0000
  C   C67       1.0  0.15117  0.89888  0.63093  1.0000
  C   C68       1.0  0.19218  0.93613  0.82303  1.0000
  C   C69       1.0  0.18957  0.97003  0.73193  1.0000
  H   H37       1.0  0.20317  0.00253  0.75133  1.0000
  C   C70       1.0  0.12596  0.86337  0.52653  1.0000
  C   C71       1.0  0.16410  0.94724  0.61343  1.0000
  H   H38       1.0  0.15627  0.96053  0.53403  1.0000
  C   C72       1.0  0.24271  0.99660  0.00093  1.0000
  C   C73       1.0  0.11668  0.81732  0.53613  1.0000
  C   C74       1.0  0.10737  0.87659  0.40013  1.0000
  C   C75       1.0  0.11189  0.75243  0.61973  1.0000
  C   C76       1.0  0.08317  0.73992  0.49043  1.0000
  H   H39       1.0  0.06547  0.70963  0.44893  1.0000
  C   C77       1.0  0.21680  0.94565  0.95523  1.0000
  C   C78       1.0  0.08627  0.77981  0.44043  1.0000
  H   H40       1.0  0.07107  0.78263  0.35653  1.0000
  C   C79       1.0  0.22537  0.01304  0.10763  1.0000
  H   H41       1.0  0.19717  0.99243  0.15693  1.0000
  C   C80       1.0  0.30627  0.07438  0.97303  1.0000
  H   H42       1.0  0.33467  0.09563  0.92563  1.0000
  C   C81       1.0  0.12267  0.87613  0.25993  1.0000
  H   H43       1.0  0.14507  0.86643  0.24423  1.0000
  C   C82       1.0  0.07277  0.90323  0.16183  1.0000
  C   C83       1.0  0.24977  0.06008  0.14153  1.0000
  H   H44       1.0  0.23767  0.07123  0.21543  1.0000
  C   C84       1.0  0.05677  0.90303  0.30183  1.0000
  H   H45       1.0  0.03387  0.91203  0.31663  1.0000
  O   O7        1.0  0.06877  0.91413  0.90593  1.0000
  C   C85       1.0  0.28407  0.02813  0.93293  1.0000
  H   H46       1.0  0.29697  0.01783  0.85913  1.0000
  C   C86       1.0  0.07337  0.88993  0.41943  1.0000
  H   H47       1.0  0.06187  0.88993  0.51433  1.0000
  C   C87       1.0  0.10557  0.88963  0.14113  1.0000
  H   H48       1.0  0.11657  0.88933  0.04583  1.0000
  O   O8        1.0  0.02597  0.93093  0.05543  1.0000
  C   C88       1.0  0.05347  0.91583  0.03423  1.0000
  N   N13       1.0  0.86782  0.20033  0.35577  1.0000
  N   N14       1.0  0.83218  0.10744  0.24147  1.0000
  N   N15       1.0  0.71034  0.90931  0.92467  1.0000
  C   C89       1.0  0.84883  0.10112  0.36907  1.0000
  C   C90       1.0  0.80782  0.06387  0.17697  1.0000
  C   C91       1.0  0.81043  0.02997  0.26807  1.0000
  H   H49       1.0  0.79683  0.99747  0.24867  1.0000
  C   C92       1.0  0.87404  0.13663  0.47347  1.0000
  C   C93       1.0  0.83590  0.05276  0.38657  1.0000
  H   H50       1.0  0.84373  0.03947  0.46597  1.0000
  C   C94       1.0  0.75729  0.00340  0.99907  1.0000
  C   C95       1.0  0.88332  0.18268  0.46387  1.0000
  C   C96       1.0  0.89263  0.12341  0.59987  1.0000
  C   C97       1.0  0.88811  0.24757  0.38027  1.0000
  C   C98       1.0  0.91683  0.26008  0.50957  1.0000
  H   H51       1.0  0.93453  0.29037  0.55107  1.0000
  C   C99       1.0  0.78320  0.05435  0.04477  1.0000
  C   C100      1.0  0.91373  0.22019  0.55957  1.0000
  H   H52       1.0  0.92893  0.21737  0.64347  1.0000
  C   C101      1.0  0.77463  0.98696  0.89237  1.0000
  H   H53       1.0  0.80283  0.00757  0.84307  1.0000
  C   C102      1.0  0.69373  0.92562  0.02697  1.0000
  H   H54       1.0  0.66533  0.90437  0.07437  1.0000
  C   C103      1.0  0.87733  0.12387  0.74007  1.0000
  H   H55       1.0  0.85493  0.13357  0.75577  1.0000
  C   C104      1.0  0.92723  0.09677  0.83817  1.0000
  C   C105      1.0  0.75023  0.93992  0.85847  1.0000
  H   H56       1.0  0.76233  0.92877  0.78457  1.0000
  C   C106      1.0  0.94323  0.09697  0.69817  1.0000
  H   H57       1.0  0.96613  0.08797  0.68337  1.0000
  O   O9        1.0  0.93123  0.08587  0.09407  1.0000
  C   C107      1.0  0.71593  0.97187  0.06707  1.0000
  H   H58       1.0  0.70303  0.98217  0.14087  1.0000
  C   C108      1.0  0.92663  0.11007  0.58057  1.0000
  H   H59       1.0  0.93813  0.11007  0.48567  1.0000
  C   C109      1.0  0.89443  0.11037  0.85887  1.0000
  H   H60       1.0  0.88343  0.11067  0.95417  1.0000
  O   O10       1.0  0.97403  0.06907  0.94457  1.0000
  C   C110      1.0  0.94653  0.08417  0.96577  1.0000
  N   N16       1.0  0.79884  0.13301  0.97757  1.0000
  N   N17       1.0  0.83448  0.22590  0.09187  1.0000
  N   N18       1.0  0.95632  0.42403  0.40867  1.0000
  C   C111      1.0  0.81783  0.23222  0.96427  1.0000
  C   C112      1.0  0.85884  0.26947  0.15637  1.0000
  C   C113      1.0  0.85623  0.30337  0.06527  1.0000
  H   H61       1.0  0.86983  0.33587  0.08467  1.0000
  C   C114      1.0  0.79262  0.19671  0.85987  1.0000
  C   C115      1.0  0.83076  0.28058  0.94677  1.0000
  H   H62       1.0  0.82293  0.29387  0.86737  1.0000
  C   C116      1.0  0.90937  0.32994  0.33427  1.0000
  C   C117      1.0  0.78334  0.15066  0.86947  1.0000
  C   C118      1.0  0.77403  0.20993  0.73347  1.0000
  C   C119      1.0  0.77855  0.08577  0.95307  1.0000
  C   C120      1.0  0.74983  0.07326  0.82377  1.0000
  H   H63       1.0  0.73213  0.04297  0.78227  1.0000
  C   C121      1.0  0.88346  0.27899  0.28857  1.0000
  C   C122      1.0  0.75293  0.11315  0.77377  1.0000
  H   H64       1.0  0.73773  0.11597  0.68987  1.0000
  C   C123      1.0  0.89203  0.34638  0.44097  1.0000
  H   H65       1.0  0.86383  0.32577  0.49027  1.0000
  C   C124      1.0  0.97293  0.40772  0.30637  1.0000
  H   H66       1.0  0.00133  0.42897  0.25897  1.0000
  C   C125      1.0  0.78933  0.20947  0.59327  1.0000
  H   H67       1.0  0.81173  0.19977  0.57757  1.0000
  C   C126      1.0  0.73943  0.23657  0.49517  1.0000
  C   C127      1.0  0.91643  0.39342  0.47487  1.0000
  H   H68       1.0  0.90433  0.40457  0.54877  1.0000
  C   C128      1.0  0.72343  0.23637  0.63517  1.0000
  H   H69       1.0  0.70053  0.24537  0.64997  1.0000
  O   O11       1.0  0.73543  0.24747  0.23927  1.0000
  C   C129      1.0  0.95073  0.36147  0.26627  1.0000
  H   H70       1.0  0.96363  0.35117  0.19247  1.0000
  C   C130      1.0  0.74003  0.22327  0.75277  1.0000
  H   H71       1.0  0.72853  0.22327  0.84767  1.0000
  C   C131      1.0  0.77223  0.22297  0.47447  1.0000
  H   H72       1.0  0.78323  0.22267  0.37917  1.0000
  O   O12       1.0  0.69263  0.26427  0.38877  1.0000
  C   C132      1.0  0.72013  0.24917  0.36757  1.0000
  N   N19       1.0  0.46634  0.00083  0.68910  1.0000
  N   N20       1.0  0.55923  0.05808  0.57480  1.0000
  N   N21       1.0  0.75736  0.13437  0.25800  1.0000
  C   C133      1.0  0.56555  0.08105  0.70240  1.0000
  C   C134      1.0  0.60280  0.07729  0.51030  1.0000
  C   C135      1.0  0.63670  0.11380  0.60140  1.0000
  H   H73       1.0  0.66920  0.13270  0.58200  1.0000
  C   C136      1.0  0.53004  0.07075  0.80680  1.0000
  C   C137      1.0  0.61391  0.11648  0.71990  1.0000
  H   H74       1.0  0.62720  0.13760  0.79930  1.0000
  C   C138      1.0  0.66327  0.08723  0.33240  1.0000
  C   C139      1.0  0.48399  0.03398  0.79720  1.0000
  C   C140      1.0  0.54326  0.10256  0.93320  1.0000
  C   C141      1.0  0.41910  0.97388  0.71360  1.0000
  C   C142      1.0  0.40659  0.99009  0.84290  1.0000
  H   H75       1.0  0.37630  0.97750  0.88440  1.0000
  C   C143      1.0  0.61232  0.06219  0.37810  1.0000
  C   C144      1.0  0.44648  0.02688  0.89290  1.0000
  H   H76       1.0  0.44930  0.04490  0.97680  1.0000
  C   C145      1.0  0.67971  0.12101  0.22570  1.0000
  H   H77       1.0  0.65910  0.12860  0.17640  1.0000
  C   C146      1.0  0.74105  0.10145  0.36030  1.0000
  H   H78       1.0  0.76230  0.09430  0.40770  1.0000
  C   C147      1.0  0.54280  0.08680  0.07340  1.0000
  H   H79       1.0  0.53310  0.05470  0.08910  1.0000
  C   C148      1.0  0.56990  0.16380  0.17150  1.0000
  C   C149      1.0  0.72675  0.14365  0.19180  1.0000
  H   H80       1.0  0.73790  0.16690  0.11790  1.0000
  C   C150      1.0  0.56970  0.17960  0.03150  1.0000
  H   H81       1.0  0.57870  0.21150  0.01670  1.0000
  O   O13       1.0  0.58080  0.17870  0.42740  1.0000
  C   C151      1.0  0.69480  0.07740  0.40040  1.0000
  H   H82       1.0  0.68450  0.05420  0.47420  1.0000
  C   C152      1.0  0.55660  0.14990  0.91390  1.0000
  H   H83       1.0  0.55660  0.16140  0.81900  1.0000
  C   C153      1.0  0.55630  0.11740  0.19220  1.0000
  H   H84       1.0  0.55600  0.10610  0.28750  1.0000
  O   O14       1.0  0.59760  0.23830  0.27790  1.0000
  C   C154      1.0  0.58250  0.19570  0.29910  1.0000
  N   N22       1.0  0.53366  0.99917  0.31090  1.0000
  N   N23       1.0  0.44077  0.94192  0.42520  1.0000
  N   N24       1.0  0.24264  0.86563  0.74200  1.0000
  C   C155      1.0  0.43445  0.91895  0.29760  1.0000
  C   C156      1.0  0.39720  0.92271  0.48970  1.0000
  C   C157      1.0  0.36330  0.88620  0.39860  1.0000
  H   H85       1.0  0.33080  0.86730  0.41800  1.0000
  C   C158      1.0  0.46996  0.92925  0.19320  1.0000
  C   C159      1.0  0.38609  0.88352  0.28010  1.0000
  H   H86       1.0  0.37280  0.86240  0.20070  1.0000
  C   C160      1.0  0.33673  0.91277  0.66760  1.0000
  C   C161      1.0  0.51601  0.96602  0.20280  1.0000
  C   C162      1.0  0.45674  0.89744  0.06680  1.0000
  C   C163      1.0  0.58090  0.02612  0.28640  1.0000
  C   C164      1.0  0.59341  0.00991  0.15710  1.0000
  H   H87       1.0  0.62370  0.02250  0.11560  1.0000
  C   C165      1.0  0.38768  0.93781  0.62190  1.0000
  C   C166      1.0  0.55352  0.97312  0.10710  1.0000
  H   H88       1.0  0.55070  0.95510  0.02320  1.0000
  C   C167      1.0  0.32029  0.87899  0.77430  1.0000
  H   H89       1.0  0.34090  0.87140  0.82360  1.0000
  C   C168      1.0  0.25895  0.89855  0.63970  1.0000
  H   H90       1.0  0.23770  0.90570  0.59230  1.0000
  C   C169      1.0  0.45720  0.91320  0.92660  1.0000
  H   H91       1.0  0.46690  0.94530  0.91090  1.0000
  C   C170      1.0  0.43010  0.83620  0.82850  1.0000
  C   C171      1.0  0.27325  0.85635  0.80820  1.0000
  H   H92       1.0  0.26210  0.83310  0.88210  1.0000
  C   C172      1.0  0.43030  0.82040  0.96850  1.0000
  H   H93       1.0  0.42130  0.78850  0.98330  1.0000
  O   O15       1.0  0.41920  0.82130  0.57260  1.0000
  C   C173      1.0  0.30520  0.92260  0.59960  1.0000
  H   H94       1.0  0.31550  0.94580  0.52580  1.0000
  C   C174      1.0  0.44340  0.85010  0.08610  1.0000
  H   H95       1.0  0.44340  0.83860  0.18100  1.0000
  C   C175      1.0  0.44370  0.88260  0.80780  1.0000
  H   H96       1.0  0.44400  0.89390  0.71250  1.0000
  O   O16       1.0  0.40240  0.76170  0.72210  1.0000
  C   C176      1.0  0.41750  0.80430  0.70090  1.0000
  C   C177      1.0  0.02997  0.21953  0.73193  1.0000
  H   H97       1.0  0.99747  0.20063  0.75133  1.0000
  C   C178      1.0  0.13663  0.26258  0.52653  1.0000
  C   C179      1.0  0.05276  0.21685  0.61343  1.0000
  H   H98       1.0  0.03947  0.19573  0.53403  1.0000
  C   C180      1.0  0.00340  0.24610  0.00093  1.0000
  C   C181      1.0  0.18268  0.29935  0.53613  1.0000
  C   C182      1.0  0.12341  0.23077  0.40013  1.0000
  C   C183      1.0  0.24757  0.35945  0.61973  1.0000
  C   C184      1.0  0.26008  0.34324  0.49043  1.0000
  H   H99       1.0  0.29037  0.35583  0.44893  1.0000
  C   C185      1.0  0.05435  0.27114  0.95523  1.0000
  C   C186      1.0  0.22019  0.30645  0.44043  1.0000
  H   H100      1.0  0.21737  0.28843  0.35653  1.0000
  C   C187      1.0  0.98696  0.21232  0.10763  1.0000
  H   H101      1.0  0.00757  0.20473  0.15693  1.0000
  C   C188      1.0  0.92562  0.23188  0.97303  1.0000
  H   H102      1.0  0.90437  0.23903  0.92563  1.0000
  C   C189      1.0  0.12387  0.24653  0.25993  1.0000
  H   H103      1.0  0.13357  0.27863  0.24423  1.0000
  C   C190      1.0  0.09677  0.16953  0.16183  1.0000
  C   C191      1.0  0.93992  0.18968  0.14153  1.0000
  H   H104      1.0  0.92877  0.16643  0.21543  1.0000
  C   C192      1.0  0.09697  0.15373  0.30183  1.0000
  H   H105      1.0  0.08797  0.12183  0.31663  1.0000
  O   O17       1.0  0.08587  0.15463  0.90593  1.0000
  C   C193      1.0  0.97187  0.25593  0.93293  1.0000
  H   H106      1.0  0.98217  0.27913  0.85913  1.0000
  C   C194      1.0  0.11007  0.18343  0.41943  1.0000
  H   H107      1.0  0.11007  0.17193  0.51433  1.0000
  C   C195      1.0  0.11037  0.21593  0.14113  1.0000
  H   H108      1.0  0.11067  0.22723  0.04583  1.0000
  O   O18       1.0  0.06907  0.09503  0.05543  1.0000
  C   C196      1.0  0.08417  0.13763  0.03423  1.0000
  N   N25       1.0  0.13301  0.33416  0.02243  1.0000
  N   N26       1.0  0.22590  0.39141  0.90813  1.0000
  N   N27       1.0  0.42403  0.46770  0.59133  1.0000
  C   C197      1.0  0.23222  0.41438  0.03573  1.0000
  C   C198      1.0  0.26947  0.41062  0.84363  1.0000
  C   C199      1.0  0.30337  0.44713  0.93473  1.0000
  H   H109      1.0  0.33587  0.46603  0.91533  1.0000
  C   C200      1.0  0.19671  0.40408  0.14013  1.0000
  C   C201      1.0  0.28058  0.44981  0.05323  1.0000
  H   H110      1.0  0.29387  0.47093  0.13263  1.0000
  C   C202      1.0  0.32994  0.42056  0.66573  1.0000
  C   C203      1.0  0.15066  0.36731  0.13053  1.0000
  C   C204      1.0  0.20993  0.43589  0.26653  1.0000
  C   C205      1.0  0.08577  0.30721  0.04693  1.0000
  C   C206      1.0  0.07326  0.32342  0.17623  1.0000
  H   H111      1.0  0.04297  0.31083  0.21773  1.0000
  C   C207      1.0  0.27899  0.39552  0.71143  1.0000
  C   C208      1.0  0.11315  0.36021  0.22623  1.0000
  H   H112      1.0  0.11597  0.37823  0.31013  1.0000
  C   C209      1.0  0.34638  0.45434  0.55903  1.0000
  H   H113      1.0  0.32577  0.46193  0.50973  1.0000
  C   C210      1.0  0.40772  0.43478  0.69363  1.0000
  H   H114      1.0  0.42897  0.42763  0.74103  1.0000
  C   C211      1.0  0.20947  0.42013  0.40673  1.0000
  H   H115      1.0  0.19977  0.38803  0.42243  1.0000
  C   C212      1.0  0.23657  0.49713  0.50483  1.0000
  C   C213      1.0  0.39342  0.47698  0.52513  1.0000
  H   H116      1.0  0.40457  0.50023  0.45123  1.0000
  C   C214      1.0  0.23637  0.51293  0.36483  1.0000
  H   H117      1.0  0.24537  0.54483  0.35003  1.0000
  O   O19       1.0  0.24747  0.51203  0.76073  1.0000
  C   C215      1.0  0.36147  0.41073  0.73373  1.0000
  H   H118      1.0  0.35117  0.38753  0.80753  1.0000
  C   C216      1.0  0.22327  0.48323  0.24723  1.0000
  H   H119      1.0  0.22327  0.49473  0.15233  1.0000
  C   C217      1.0  0.22297  0.45073  0.52553  1.0000
  H   H120      1.0  0.22267  0.43943  0.62083  1.0000
  O   O20       1.0  0.26427  0.57163  0.61123  1.0000
  C   C218      1.0  0.24917  0.52903  0.63243  1.0000
  N   N28       1.0  0.20033  0.33250  0.64423  1.0000
  N   N29       1.0  0.10744  0.27525  0.75853  1.0000
  N   N30       1.0  0.90931  0.19896  0.07533  1.0000
  C   C219      1.0  0.10112  0.25228  0.63093  1.0000
  C   C220      1.0  0.06387  0.25604  0.82303  1.0000
  N   N31       1.0  0.86699  0.66584  0.97757  1.0000
  N   N32       1.0  0.77410  0.60859  0.09187  1.0000
  N   N33       1.0  0.57597  0.53230  0.40867  1.0000
  C   C221      1.0  0.76778  0.58562  0.96427  1.0000
  C   C222      1.0  0.73053  0.58938  0.15637  1.0000
  C   C223      1.0  0.69663  0.55287  0.06527  1.0000
  H   H121      1.0  0.66413  0.53397  0.08467  1.0000
  C   C224      1.0  0.80329  0.59592  0.85987  1.0000
  C   C225      1.0  0.71942  0.55019  0.94677  1.0000
  H   H122      1.0  0.70613  0.52907  0.86737  1.0000
  C   C226      1.0  0.67006  0.57944  0.33427  1.0000
  C   C227      1.0  0.84934  0.63269  0.86947  1.0000
  C   C228      1.0  0.79007  0.56411  0.73347  1.0000
  C   C229      1.0  0.91423  0.69279  0.95307  1.0000
  C   C230      1.0  0.92674  0.67658  0.82377  1.0000
  H   H123      1.0  0.95703  0.68917  0.78227  1.0000
  C   C231      1.0  0.72101  0.60448  0.28857  1.0000
  C   C232      1.0  0.88685  0.63979  0.77377  1.0000
  H   H124      1.0  0.88403  0.62177  0.68987  1.0000
  C   C233      1.0  0.65362  0.54566  0.44097  1.0000
  H   H125      1.0  0.67423  0.53807  0.49027  1.0000
  C   C234      1.0  0.59228  0.56522  0.30637  1.0000
  H   H126      1.0  0.57103  0.57237  0.25897  1.0000
  C   C235      1.0  0.79053  0.57987  0.59327  1.0000
  H   H127      1.0  0.80023  0.61197  0.57757  1.0000
  C   C236      1.0  0.76343  0.50287  0.49517  1.0000
  C   C237      1.0  0.60658  0.52302  0.47487  1.0000
  H   H128      1.0  0.59543  0.49977  0.54877  1.0000
  C   C238      1.0  0.76363  0.48707  0.63517  1.0000
  H   H129      1.0  0.75463  0.45517  0.64997  1.0000
  O   O21       1.0  0.75253  0.48797  0.23927  1.0000
  C   C239      1.0  0.63853  0.58927  0.26627  1.0000
  H   H130      1.0  0.64883  0.61247  0.19247  1.0000
  C   C240      1.0  0.77673  0.51677  0.75277  1.0000
  H   H131      1.0  0.77673  0.50527  0.84767  1.0000
  C   C241      1.0  0.77703  0.54927  0.47447  1.0000
  H   H132      1.0  0.77733  0.56057  0.37917  1.0000
  O   O22       1.0  0.73573  0.42837  0.38877  1.0000
  C   C242      1.0  0.75083  0.47097  0.36757  1.0000
  N   N34       1.0  0.79967  0.66750  0.35577  1.0000
  N   N35       1.0  0.89256  0.72475  0.24147  1.0000
  N   N36       1.0  0.09069  0.80104  0.92467  1.0000
  C   C243      1.0  0.89888  0.74772  0.36907  1.0000
  C   C244      1.0  0.93613  0.74396  0.17697  1.0000
  C   C245      1.0  0.97003  0.78047  0.26807  1.0000
  H   H133      1.0  0.00253  0.79937  0.24867  1.0000
  C   C246      1.0  0.86337  0.73742  0.47347  1.0000
  C   C247      1.0  0.94724  0.78315  0.38657  1.0000
  H   H134      1.0  0.96053  0.80427  0.46597  1.0000
  C   C248      1.0  0.99660  0.75390  0.99907  1.0000
  C   C249      1.0  0.81732  0.70065  0.46387  1.0000
  C   C250      1.0  0.87659  0.76923  0.59987  1.0000
  C   C251      1.0  0.75243  0.64055  0.38027  1.0000
  C   C252      1.0  0.73992  0.65676  0.50957  1.0000
  H   H135      1.0  0.70963  0.64417  0.55107  1.0000
  C   C253      1.0  0.94565  0.72886  0.04477  1.0000
  C   C254      1.0  0.77981  0.69355  0.55957  1.0000
  H   H136      1.0  0.78263  0.71157  0.64347  1.0000
  C   C255      1.0  0.01304  0.78768  0.89237  1.0000
  H   H137      1.0  0.99243  0.79527  0.84307  1.0000
  C   C256      1.0  0.07438  0.76812  0.02697  1.0000
  H   H138      1.0  0.09563  0.76097  0.07437  1.0000
  C   C257      1.0  0.87613  0.75347  0.74007  1.0000
  H   H139      1.0  0.86643  0.72137  0.75577  1.0000
  C   C258      1.0  0.90323  0.83047  0.83817  1.0000
  C   C259      1.0  0.06008  0.81032  0.85847  1.0000
  H   H140      1.0  0.07123  0.83357  0.78457  1.0000
  C   C260      1.0  0.90303  0.84627  0.69817  1.0000
  H   H141      1.0  0.91203  0.87817  0.68337  1.0000
  O   O23       1.0  0.91413  0.84537  0.09407  1.0000
  C   C261      1.0  0.02813  0.74407  0.06707  1.0000
  H   H142      1.0  0.01783  0.72087  0.14087  1.0000
  C   C262      1.0  0.88993  0.81657  0.58057  1.0000
  H   H143      1.0  0.88993  0.82807  0.48567  1.0000
  C   C263      1.0  0.88963  0.78407  0.85887  1.0000
  H   H144      1.0  0.88933  0.77277  0.95417  1.0000
  O   O24       1.0  0.93093  0.90497  0.94457  1.0000
  C   C264      1.0  0.91583  0.86237  0.96577  1.0000
  N   N37       1.0  0.00083  0.53449  0.31090  1.0000
  N   N38       1.0  0.05808  0.49885  0.42520  1.0000
  N   N39       1.0  0.13437  0.37701  0.74200  1.0000
  C   C265      1.0  0.08105  0.51550  0.29760  1.0000
  C   C266      1.0  0.07729  0.47449  0.48970  1.0000
  C   C267      1.0  0.11380  0.47710  0.39860  1.0000
  H   H145      1.0  0.13270  0.46350  0.41800  1.0000
  C   C268      1.0  0.07075  0.54071  0.19320  1.0000
  C   C269      1.0  0.11648  0.50257  0.28010  1.0000
  H   H146      1.0  0.13760  0.51040  0.20070  1.0000
  C   C270      1.0  0.08723  0.42396  0.66760  1.0000
  C   C271      1.0  0.03398  0.54999  0.20280  1.0000
  C   C272      1.0  0.10256  0.55930  0.06680  1.0000
  C   C273      1.0  0.97388  0.55478  0.28640  1.0000
  C   C274      1.0  0.99009  0.58350  0.15710  1.0000
  H   H147      1.0  0.97750  0.60120  0.11560  1.0000
  C   C275      1.0  0.06219  0.44987  0.62190  1.0000
  C   C276      1.0  0.02688  0.58040  0.10710  1.0000
  H   H148      1.0  0.04490  0.59560  0.02320  1.0000
  C   C277      1.0  0.12101  0.44130  0.77430  1.0000
  H   H149      1.0  0.12860  0.46950  0.82360  1.0000
  C   C278      1.0  0.10145  0.36040  0.63970  1.0000
  H   H150      1.0  0.09430  0.33200  0.59230  1.0000
  C   C279      1.0  0.08680  0.54400  0.92660  1.0000
  H   H151      1.0  0.05470  0.52160  0.91090  1.0000
  C   C280      1.0  0.16380  0.59390  0.82850  1.0000
  C   C281      1.0  0.14365  0.41690  0.80820  1.0000
  H   H152      1.0  0.16690  0.42900  0.88210  1.0000
  C   C282      1.0  0.17960  0.60990  0.96850  1.0000
  H   H153      1.0  0.21150  0.63280  0.98330  1.0000
  O   O25       1.0  0.17870  0.59790  0.57260  1.0000
  C   C283      1.0  0.07740  0.38260  0.59960  1.0000
  H   H154      1.0  0.05420  0.36970  0.52580  1.0000
  C   C284      1.0  0.14990  0.59330  0.08610  1.0000
  H   H155      1.0  0.16140  0.60480  0.18100  1.0000
  C   C285      1.0  0.11740  0.56110  0.80780  1.0000
  H   H156      1.0  0.10610  0.55010  0.71250  1.0000
  O   O26       1.0  0.23830  0.64070  0.72210  1.0000
  C   C286      1.0  0.19570  0.61320  0.70090  1.0000
  N   N40       1.0  0.99917  0.46551  0.68910  1.0000
  N   N41       1.0  0.94192  0.50115  0.57480  1.0000
  N   N42       1.0  0.86563  0.62299  0.25800  1.0000
  C   C287      1.0  0.91895  0.48450  0.70240  1.0000
  C   C288      1.0  0.92271  0.52551  0.51030  1.0000
  C   C289      1.0  0.88620  0.52290  0.60140  1.0000
  H   H157      1.0  0.86730  0.53650  0.58200  1.0000
  C   C290      1.0  0.92925  0.45929  0.80680  1.0000
  C   C291      1.0  0.88352  0.49743  0.71990  1.0000
  H   H158      1.0  0.86240  0.48960  0.79930  1.0000
  C   C292      1.0  0.91277  0.57604  0.33240  1.0000
  C   C293      1.0  0.96602  0.45001  0.79720  1.0000
  C   C294      1.0  0.89744  0.44070  0.93320  1.0000
  C   C295      1.0  0.02612  0.44522  0.71360  1.0000
  C   C296      1.0  0.00991  0.41650  0.84290  1.0000
  H   H159      1.0  0.02250  0.39880  0.88440  1.0000
  C   C297      1.0  0.93781  0.55013  0.37810  1.0000
  C   C298      1.0  0.97312  0.41960  0.89290  1.0000
  H   H160      1.0  0.95510  0.40440  0.97680  1.0000
  C   C299      1.0  0.87899  0.55870  0.22570  1.0000
  H   H161      1.0  0.87140  0.53050  0.17640  1.0000
  C   C300      1.0  0.89855  0.63960  0.36030  1.0000
  H   H162      1.0  0.90570  0.66800  0.40770  1.0000
  C   C301      1.0  0.91320  0.45600  0.07340  1.0000
  H   H163      1.0  0.94530  0.47840  0.08910  1.0000
  C   C302      1.0  0.83620  0.40610  0.17150  1.0000
  C   C303      1.0  0.85635  0.58310  0.19180  1.0000
  H   H164      1.0  0.83310  0.57100  0.11790  1.0000
  C   C304      1.0  0.82040  0.39010  0.03150  1.0000
  H   H165      1.0  0.78850  0.36720  0.01670  1.0000
  O   O27       1.0  0.82130  0.40210  0.42740  1.0000
  C   C305      1.0  0.92260  0.61740  0.40040  1.0000
  H   H166      1.0  0.94580  0.63030  0.47420  1.0000
  C   C306      1.0  0.85010  0.40670  0.91390  1.0000
  H   H167      1.0  0.83860  0.39520  0.81900  1.0000
  C   C307      1.0  0.88260  0.43890  0.19220  1.0000
  H   H168      1.0  0.89390  0.44990  0.28750  1.0000
  O   O28       1.0  0.76170  0.35930  0.27790  1.0000
  C   C308      1.0  0.80430  0.38680  0.29910  1.0000
  N   N43       1.0  0.66750  0.86782  0.64423  1.0000
  N   N44       1.0  0.72475  0.83218  0.75853  1.0000
  N   N45       1.0  0.80104  0.71034  0.07533  1.0000
  C   C309      1.0  0.74772  0.84883  0.63093  1.0000
  C   C310      1.0  0.74396  0.80782  0.82303  1.0000
  C   C311      1.0  0.78047  0.81043  0.73193  1.0000
  H   H169      1.0  0.79937  0.79683  0.75133  1.0000
  C   C312      1.0  0.73742  0.87404  0.52653  1.0000
  C   C313      1.0  0.78315  0.83590  0.61343  1.0000
  H   H170      1.0  0.80427  0.84373  0.53403  1.0000
  C   C314      1.0  0.75390  0.75729  0.00093  1.0000
  C   C315      1.0  0.70065  0.88332  0.53613  1.0000
  C   C316      1.0  0.76923  0.89263  0.40013  1.0000
  C   C317      1.0  0.64055  0.88811  0.61973  1.0000
  C   C318      1.0  0.65676  0.91683  0.49043  1.0000
  H   H171      1.0  0.64417  0.93453  0.44893  1.0000
  C   C319      1.0  0.72886  0.78320  0.95523  1.0000
  C   C320      1.0  0.69355  0.91373  0.44043  1.0000
  H   H172      1.0  0.71157  0.92893  0.35653  1.0000
  C   C321      1.0  0.78768  0.77463  0.10763  1.0000
  H   H173      1.0  0.79527  0.80283  0.15693  1.0000
  C   C322      1.0  0.76812  0.69373  0.97303  1.0000
  H   H174      1.0  0.76097  0.66533  0.92563  1.0000
  C   C323      1.0  0.75347  0.87733  0.25993  1.0000
  H   H175      1.0  0.72137  0.85493  0.24423  1.0000
  C   C324      1.0  0.83047  0.92723  0.16183  1.0000
  C   C325      1.0  0.81032  0.75023  0.14153  1.0000
  H   H176      1.0  0.83357  0.76233  0.21543  1.0000
  C   C326      1.0  0.84627  0.94323  0.30183  1.0000
  H   H177      1.0  0.87817  0.96613  0.31663  1.0000
  O   O29       1.0  0.84537  0.93123  0.90593  1.0000
  C   C327      1.0  0.74407  0.71593  0.93293  1.0000
  H   H178      1.0  0.72087  0.70303  0.85913  1.0000
  C   C328      1.0  0.81657  0.92663  0.41943  1.0000
  H   H179      1.0  0.82807  0.93813  0.51433  1.0000
  C   C329      1.0  0.78407  0.89443  0.14113  1.0000
  H   H180      1.0  0.77277  0.88343  0.04583  1.0000
  O   O30       1.0  0.90497  0.97403  0.05543  1.0000
  C   C330      1.0  0.86237  0.94653  0.03423  1.0000
  N   N46       1.0  0.66584  0.79884  0.02243  1.0000
  N   N47       1.0  0.60859  0.83448  0.90813  1.0000
  N   N48       1.0  0.53230  0.95632  0.59133  1.0000
  C   C331      1.0  0.58562  0.81783  0.03573  1.0000
  C   C332      1.0  0.58938  0.85884  0.84363  1.0000
  C   C333      1.0  0.55287  0.85623  0.93473  1.0000
  H   H181      1.0  0.53397  0.86983  0.91533  1.0000
  C   C334      1.0  0.59592  0.79262  0.14013  1.0000
  C   C335      1.0  0.55019  0.83076  0.05323  1.0000
  H   H182      1.0  0.52907  0.82293  0.13263  1.0000
  C   C336      1.0  0.57944  0.90937  0.66573  1.0000
  C   C337      1.0  0.63269  0.78334  0.13053  1.0000
  C   C338      1.0  0.56411  0.77403  0.26653  1.0000
  C   C339      1.0  0.69279  0.77855  0.04693  1.0000
  C   C340      1.0  0.67658  0.74983  0.17623  1.0000
  H   H183      1.0  0.68917  0.73213  0.21773  1.0000
  C   C341      1.0  0.60448  0.88346  0.71143  1.0000
  C   C342      1.0  0.63979  0.75293  0.22623  1.0000
  H   H184      1.0  0.62177  0.73773  0.31013  1.0000
  C   C343      1.0  0.54566  0.89203  0.55903  1.0000
  H   H185      1.0  0.53807  0.86383  0.50973  1.0000
  C   C344      1.0  0.56522  0.97293  0.69363  1.0000
  H   H186      1.0  0.57237  0.00133  0.74103  1.0000
  C   C345      1.0  0.57987  0.78933  0.40673  1.0000
  H   H187      1.0  0.61197  0.81173  0.42243  1.0000
  C   C346      1.0  0.50287  0.73943  0.50483  1.0000
  C   C347      1.0  0.52302  0.91643  0.52513  1.0000
  H   H188      1.0  0.49977  0.90433  0.45123  1.0000
  C   C348      1.0  0.48707  0.72343  0.36483  1.0000
  H   H189      1.0  0.45517  0.70053  0.35003  1.0000
  O   O31       1.0  0.48797  0.73543  0.76073  1.0000
  C   C349      1.0  0.58927  0.95073  0.73373  1.0000
  H   H190      1.0  0.61247  0.96363  0.80753  1.0000
  C   C350      1.0  0.51677  0.74003  0.24723  1.0000
  H   H191      1.0  0.50527  0.72853  0.15233  1.0000
  C   C351      1.0  0.54927  0.77223  0.52553  1.0000
  H   H192      1.0  0.56057  0.78323  0.62083  1.0000
  O   O32       1.0  0.42837  0.69263  0.61123  1.0000
  C   C352      1.0  0.47097  0.72013  0.63243  1.0000
  N   N49       1.0  0.33416  0.20116  0.97757  1.0000
  N   N50       1.0  0.39141  0.16552  0.09187  1.0000
  N   N51       1.0  0.46770  0.04368  0.40867  1.0000
  C   C353      1.0  0.41438  0.18217  0.96427  1.0000
  C   C354      1.0  0.41062  0.14116  0.15637  1.0000
  C   C355      1.0  0.44713  0.14377  0.06527  1.0000
  H   H193      1.0  0.46603  0.13017  0.08467  1.0000
  C   C356      1.0  0.40408  0.20738  0.85987  1.0000
  C   C357      1.0  0.44981  0.16924  0.94677  1.0000
  H   H194      1.0  0.47093  0.17707  0.86737  1.0000
  C   C358      1.0  0.42056  0.09063  0.33427  1.0000
  C   C359      1.0  0.36731  0.21666  0.86947  1.0000
  C   C360      1.0  0.43589  0.22597  0.73347  1.0000
  C   C361      1.0  0.30721  0.22145  0.95307  1.0000
  C   C362      1.0  0.32342  0.25017  0.82377  1.0000
  H   H195      1.0  0.31083  0.26787  0.78227  1.0000
  C   C363      1.0  0.39552  0.11654  0.28857  1.0000
  C   C364      1.0  0.36021  0.24707  0.77377  1.0000
  H   H196      1.0  0.37823  0.26227  0.68987  1.0000
  C   C365      1.0  0.45434  0.10797  0.44097  1.0000
  H   H197      1.0  0.46193  0.13617  0.49027  1.0000
  C   C366      1.0  0.43478  0.02707  0.30637  1.0000
  H   H198      1.0  0.42763  0.99867  0.25897  1.0000
  C   C367      1.0  0.42013  0.21067  0.59327  1.0000
  H   H199      1.0  0.38803  0.18827  0.57757  1.0000
  C   C368      1.0  0.49713  0.26057  0.49517  1.0000
  C   C369      1.0  0.47698  0.08357  0.47487  1.0000
  H   H200      1.0  0.50023  0.09567  0.54877  1.0000
  C   C370      1.0  0.51293  0.27657  0.63517  1.0000
  H   H201      1.0  0.54483  0.29947  0.64997  1.0000
  O   O33       1.0  0.51203  0.26457  0.23927  1.0000
  C   C371      1.0  0.41073  0.04927  0.26627  1.0000
  H   H202      1.0  0.38753  0.03637  0.19247  1.0000
  C   C372      1.0  0.48323  0.25997  0.75277  1.0000
  H   H203      1.0  0.49473  0.27147  0.84767  1.0000
  C   C373      1.0  0.45073  0.22777  0.47447  1.0000
  H   H204      1.0  0.43943  0.21677  0.37917  1.0000
  O   O34       1.0  0.57163  0.30737  0.38877  1.0000
  C   C374      1.0  0.52903  0.27987  0.36757  1.0000
  N   N52       1.0  0.33250  0.13218  0.35577  1.0000
  N   N53       1.0  0.27525  0.16782  0.24147  1.0000
  N   N54       1.0  0.19896  0.28966  0.92467  1.0000
  C   C375      1.0  0.25228  0.15117  0.36907  1.0000
  C   C376      1.0  0.25604  0.19218  0.17697  1.0000
  C   C377      1.0  0.21953  0.18957  0.26807  1.0000
  H   H205      1.0  0.20063  0.20317  0.24867  1.0000
  C   C378      1.0  0.26258  0.12596  0.47347  1.0000
  C   C379      1.0  0.21685  0.16410  0.38657  1.0000
  H   H206      1.0  0.19573  0.15627  0.46597  1.0000
  C   C380      1.0  0.24610  0.24271  0.99907  1.0000
  C   C381      1.0  0.29935  0.11668  0.46387  1.0000
  C   C382      1.0  0.23077  0.10737  0.59987  1.0000
  C   C383      1.0  0.35945  0.11189  0.38027  1.0000
  C   C384      1.0  0.34324  0.08317  0.50957  1.0000
  H   H207      1.0  0.35583  0.06547  0.55107  1.0000
  C   C385      1.0  0.27114  0.21680  0.04477  1.0000
  C   C386      1.0  0.30645  0.08627  0.55957  1.0000
  H   H208      1.0  0.28843  0.07107  0.64347  1.0000
  C   C387      1.0  0.21232  0.22537  0.89237  1.0000
  H   H209      1.0  0.20473  0.19717  0.84307  1.0000
  C   C388      1.0  0.23188  0.30627  0.02697  1.0000
  H   H210      1.0  0.23903  0.33467  0.07437  1.0000
  C   C389      1.0  0.24653  0.12267  0.74007  1.0000
  H   H211      1.0  0.27863  0.14507  0.75577  1.0000
  C   C390      1.0  0.16953  0.07277  0.83817  1.0000
  C   C391      1.0  0.18968  0.24977  0.85847  1.0000
  H   H212      1.0  0.16643  0.23767  0.78457  1.0000
  C   C392      1.0  0.15373  0.05677  0.69817  1.0000
  H   H213      1.0  0.12183  0.03387  0.68337  1.0000
  O   O35       1.0  0.15463  0.06877  0.09407  1.0000
  C   C393      1.0  0.25593  0.28407  0.06707  1.0000
  H   H214      1.0  0.27913  0.29697  0.14087  1.0000
  C   C394      1.0  0.18343  0.07337  0.58057  1.0000
  H   H215      1.0  0.17193  0.06187  0.48567  1.0000
  C   C395      1.0  0.21593  0.10557  0.85887  1.0000
  H   H216      1.0  0.22723  0.11657  0.95417  1.0000
  O   O36       1.0  0.09503  0.02597  0.94457  1.0000
  C   C396      1.0  0.13763  0.05347  0.96577  1.0000
  Co  Co1       1.0  0.83333  0.16667  0.16667  1.0000
  Co  Co2       1.0  0.50000  0.50000  0.50000  1.0000
  Co  Co3       1.0  0.83333  0.66667  0.16667  1.0000
  Co  Co4       1.0  0.50000  0.00000  0.50000  1.0000
  Co  Co5       1.0  0.66667  0.83333  0.83333  1.0000
  Co  Co6       1.0  0.16667  0.83333  0.83333  1.0000
  Co  Co7       1.0  0.16667  0.33333  0.83333  1.0000
  Co  Co8       1.0  0.33333  0.16667  0.16667  1.0000
  Co  Co9       1.0  0.00000  0.50000  0.50000  1.0000
