data_image0
_chemical_formula_structural       OC3HOC3HO4CHC2OC3HOCH2O3C5O2CHOCHO3C3HC2OC2OC2HCHCO5C3HC3O2C4H2OC2OCO2CHO2C5HCHOC2O2CHOC3HO2C3HO2COC2HO2CHC2OC5HO3CHO2C2OC4OCHCHCHO3C2O2C4OCHCHCHO6C3HC3H2C3O4C2O2CHCHC3HO3C3HO3CHC4OCHO2C3HO3C3OC3OC2HOHCHC2OCHOC2O4C3HCHC2OCHOCOCOC2O2CHCHO3CHOC2O2C3HC2OCHOCHO2C2OCHC2OC2OCHOC3HO3C2OC3HO2CHCHO2C6OCHOC3HO2CHC2O2C2O2CHCOC4OHCHOC2O3CHC2O2CHCHC2O3CHC2OC2OCOC4HOCHO2CHOC4O3CHCHC3HO4C2O2C4HCH2O3C6O3CHCHCHO3C4O4C2HC4H2OCO2C2HOCOC5OHOCHO2CHC2OC3HO2C2OCHO2CHO2C5HC2O2CHOCHOCOC3H2OC2O3C2Cl48Mn48
_chemical_formula_sum              "O192 C288 H96 Cl48 Mn48"
_cell_length_a       26.771
_cell_length_b       26.771
_cell_length_c       26.771
_cell_angle_alpha    90
_cell_angle_beta     90
_cell_angle_gamma    90

_space_group_name_H-M_alt    "P 1"
_space_group_IT_number       1

loop_
  _space_group_symop_operation_xyz
  'x, y, z'

loop_
  _atom_site_type_symbol
  _atom_site_label
  _atom_site_symmetry_multiplicity
  _atom_site_fract_x
  _atom_site_fract_y
  _atom_site_fract_z
  _atom_site_occupancy
  O   O1        1.0  0.25870  0.18320  0.94540  1.0000
  C   C1        1.0  0.29750  0.20250  0.92980  1.0000
  C   C2        1.0  0.32210  0.17790  0.88500  1.0000
  C   C3        1.0  0.30120  0.13630  0.86370  1.0000
  H   H1        1.0  0.27180  0.12170  0.87830  1.0000
  O   O2        1.0  0.25870  0.05460  0.81680  1.0000
  C   C4        1.0  0.32210  0.11500  0.82210  1.0000
  C   C5        1.0  0.29750  0.07020  0.79750  1.0000
  C   C6        1.0  0.36370  0.19880  0.86370  1.0000
  H   H2        1.0  0.37830  0.22820  0.87830  1.0000
  O   O3        1.0  0.44540  0.18320  0.75870  1.0000
  O   O4        1.0  0.31680  0.05460  0.75870  1.0000
  O   O5        1.0  0.31680  0.24130  0.94540  1.0000
  O   O6        1.0  0.44540  0.24130  0.81680  1.0000
  C   C7        1.0  0.36370  0.13630  0.80120  1.0000
  H   H3        1.0  0.37830  0.12170  0.77180  1.0000
  C   C8        1.0  0.38500  0.17790  0.82210  1.0000
  C   C9        1.0  0.42980  0.20250  0.79750  1.0000
  O   O7        1.0  0.25870  0.68320  0.44540  1.0000
  C   C10       1.0  0.32210  0.67790  0.38500  1.0000
  C   C11       1.0  0.29750  0.70250  0.42980  1.0000
  C   C12       1.0  0.30120  0.63630  0.36370  1.0000
  H   H4        1.0  0.27180  0.62170  0.37830  1.0000
  O   O8        1.0  0.25870  0.55460  0.31680  1.0000
  C   C13       1.0  0.36370  0.69880  0.36370  1.0000
  H   H5        1.0  0.37830  0.72820  0.37830  1.0000
  H   H6        1.0  0.37830  0.62170  0.27180  1.0000
  O   O9        1.0  0.31680  0.55460  0.25870  1.0000
  O   O10       1.0  0.31680  0.74130  0.44540  1.0000
  O   O11       1.0  0.44540  0.74130  0.31680  1.0000
  C   C14       1.0  0.32210  0.61500  0.32210  1.0000
  C   C15       1.0  0.29750  0.57020  0.29750  1.0000
  C   C16       1.0  0.38500  0.67790  0.32210  1.0000
  C   C17       1.0  0.42980  0.70250  0.29750  1.0000
  C   C18       1.0  0.36370  0.63630  0.30120  1.0000
  O   O12       1.0  0.44540  0.68320  0.25870  1.0000
  O   O13       1.0  0.75870  0.18320  0.44540  1.0000
  C   C19       1.0  0.80120  0.13630  0.36370  1.0000
  H   H7        1.0  0.77180  0.12170  0.37830  1.0000
  O   O14       1.0  0.75870  0.05460  0.31680  1.0000
  C   C20       1.0  0.86370  0.19880  0.36370  1.0000
  H   H8        1.0  0.87830  0.22820  0.37830  1.0000
  O   O15       1.0  0.81680  0.05460  0.25870  1.0000
  O   O16       1.0  0.81680  0.24130  0.44540  1.0000
  O   O17       1.0  0.94540  0.24130  0.31680  1.0000
  C   C21       1.0  0.82210  0.11500  0.32210  1.0000
  C   C22       1.0  0.79750  0.07020  0.29750  1.0000
  C   C23       1.0  0.86370  0.13630  0.30120  1.0000
  H   H9        1.0  0.87830  0.12170  0.27180  1.0000
  C   C24       1.0  0.88500  0.17790  0.32210  1.0000
  C   C25       1.0  0.92980  0.20250  0.29750  1.0000
  O   O18       1.0  0.94540  0.18320  0.25870  1.0000
  C   C26       1.0  0.82210  0.17790  0.38500  1.0000
  C   C27       1.0  0.79750  0.20250  0.42980  1.0000
  O   O19       1.0  0.75870  0.68320  0.94540  1.0000
  C   C28       1.0  0.82210  0.61500  0.82210  1.0000
  C   C29       1.0  0.80120  0.63630  0.86370  1.0000
  H   H10       1.0  0.77180  0.62170  0.87830  1.0000
  C   C30       1.0  0.86370  0.69880  0.86370  1.0000
  H   H11       1.0  0.87830  0.72820  0.87830  1.0000
  C   C31       1.0  0.79750  0.57020  0.79750  1.0000
  O   O20       1.0  0.75870  0.55460  0.81680  1.0000
  O   O21       1.0  0.81680  0.55460  0.75870  1.0000
  O   O22       1.0  0.81680  0.74130  0.94540  1.0000
  O   O23       1.0  0.94540  0.74130  0.81680  1.0000
  O   O24       1.0  0.94540  0.68320  0.75870  1.0000
  C   C32       1.0  0.88500  0.67790  0.82210  1.0000
  C   C33       1.0  0.92980  0.70250  0.79750  1.0000
  C   C34       1.0  0.86370  0.63630  0.80120  1.0000
  H   H12       1.0  0.87830  0.62170  0.77180  1.0000
  C   C35       1.0  0.82210  0.67790  0.88500  1.0000
  C   C36       1.0  0.79750  0.70250  0.92980  1.0000
  C   C37       1.0  0.57020  0.79750  0.79750  1.0000
  O   O25       1.0  0.68320  0.94540  0.75870  1.0000
  O   O26       1.0  0.74130  0.81680  0.94540  1.0000
  C   C38       1.0  0.70250  0.79750  0.92980  1.0000
  C   C39       1.0  0.67790  0.82210  0.88500  1.0000
  C   C40       1.0  0.63630  0.86370  0.80120  1.0000
  C   C41       1.0  0.69880  0.86370  0.86370  1.0000
  H   H13       1.0  0.72820  0.87830  0.87830  1.0000
  H   H14       1.0  0.62170  0.87830  0.77180  1.0000
  O   O27       1.0  0.74130  0.94540  0.81680  1.0000
  C   C42       1.0  0.67790  0.88500  0.82210  1.0000
  C   C43       1.0  0.70250  0.92980  0.79750  1.0000
  O   O28       1.0  0.55460  0.81680  0.75870  1.0000
  C   C44       1.0  0.61500  0.82210  0.82210  1.0000
  O   O29       1.0  0.68320  0.75870  0.94540  1.0000
  O   O30       1.0  0.55460  0.75870  0.81680  1.0000
  C   C45       1.0  0.63630  0.80120  0.86370  1.0000
  H   H15       1.0  0.62170  0.77180  0.87830  1.0000
  O   O31       1.0  0.68320  0.44540  0.25870  1.0000
  O   O32       1.0  0.74130  0.31680  0.44540  1.0000
  C   C46       1.0  0.67790  0.32210  0.38500  1.0000
  C   C47       1.0  0.70250  0.29750  0.42980  1.0000
  C   C48       1.0  0.61500  0.32210  0.32210  1.0000
  C   C49       1.0  0.63630  0.36370  0.30120  1.0000
  C   C50       1.0  0.69880  0.36370  0.36370  1.0000
  H   H16       1.0  0.72820  0.37830  0.37830  1.0000
  C   C51       1.0  0.57020  0.29750  0.29750  1.0000
  H   H17       1.0  0.62170  0.37830  0.27180  1.0000
  O   O33       1.0  0.74130  0.44540  0.31680  1.0000
  C   C52       1.0  0.67790  0.38500  0.32210  1.0000
  C   C53       1.0  0.70250  0.42980  0.29750  1.0000
  O   O34       1.0  0.55460  0.31680  0.25870  1.0000
  O   O35       1.0  0.68320  0.25870  0.44540  1.0000
  C   C54       1.0  0.63630  0.30120  0.36370  1.0000
  H   H18       1.0  0.62170  0.27180  0.37830  1.0000
  O   O36       1.0  0.55460  0.25870  0.31680  1.0000
  C   C55       1.0  0.17790  0.82210  0.38500  1.0000
  C   C56       1.0  0.20250  0.79750  0.42980  1.0000
  C   C57       1.0  0.13630  0.86370  0.30120  1.0000
  H   H19       1.0  0.12170  0.87830  0.27180  1.0000
  O   O37       1.0  0.18320  0.94540  0.25870  1.0000
  O   O38       1.0  0.24130  0.81680  0.44540  1.0000
  C   C58       1.0  0.17790  0.88500  0.32210  1.0000
  C   C59       1.0  0.20250  0.92980  0.29750  1.0000
  C   C60       1.0  0.19880  0.86370  0.36370  1.0000
  H   H20       1.0  0.22820  0.87830  0.37830  1.0000
  O   O39       1.0  0.24130  0.94540  0.31680  1.0000
  O   O40       1.0  0.05460  0.81680  0.25870  1.0000
  C   C61       1.0  0.11500  0.82210  0.32210  1.0000
  O   O41       1.0  0.18320  0.75870  0.44540  1.0000
  C   C62       1.0  0.07020  0.79750  0.29750  1.0000
  C   C63       1.0  0.13630  0.80120  0.36370  1.0000
  H   H21       1.0  0.12170  0.77180  0.37830  1.0000
  O   O42       1.0  0.05460  0.75870  0.31680  1.0000
  O   O43       1.0  0.18320  0.44540  0.75870  1.0000
  C   C64       1.0  0.13630  0.36370  0.80120  1.0000
  H   H22       1.0  0.12170  0.37830  0.77180  1.0000
  C   C65       1.0  0.11500  0.32210  0.82210  1.0000
  C   C66       1.0  0.07020  0.29750  0.79750  1.0000
  O   O44       1.0  0.24130  0.31680  0.94540  1.0000
  C   C67       1.0  0.17790  0.32210  0.88500  1.0000
  C   C68       1.0  0.20250  0.29750  0.92980  1.0000
  C   C69       1.0  0.17790  0.38500  0.82210  1.0000
  C   C70       1.0  0.20250  0.42980  0.79750  1.0000
  C   C71       1.0  0.19880  0.36370  0.86370  1.0000
  H   H23       1.0  0.22820  0.37830  0.87830  1.0000
  O   O45       1.0  0.24130  0.44540  0.81680  1.0000
  O   O46       1.0  0.05460  0.31680  0.75870  1.0000
  O   O47       1.0  0.18320  0.25870  0.94540  1.0000
  C   C72       1.0  0.13630  0.30120  0.86370  1.0000
  H   H24       1.0  0.12170  0.27180  0.87830  1.0000
  O   O48       1.0  0.05460  0.25870  0.81680  1.0000
  O   O49       1.0  0.74130  0.05460  0.18320  1.0000
  C   C73       1.0  0.61500  0.17790  0.17790  1.0000
  C   C74       1.0  0.57020  0.20250  0.20250  1.0000
  O   O50       1.0  0.74130  0.18320  0.05460  1.0000
  C   C75       1.0  0.67790  0.11500  0.17790  1.0000
  C   C76       1.0  0.67790  0.17790  0.11500  1.0000
  C   C77       1.0  0.70250  0.20250  0.07020  1.0000
  C   C78       1.0  0.70250  0.07020  0.20250  1.0000
  O   O51       1.0  0.68320  0.05460  0.24130  1.0000
  C   C79       1.0  0.69880  0.13630  0.13630  1.0000
  H   H25       1.0  0.72820  0.12170  0.12170  1.0000
  C   C80       1.0  0.63630  0.13630  0.19880  1.0000
  H   H26       1.0  0.62170  0.12170  0.22820  1.0000
  C   C81       1.0  0.63630  0.19880  0.13630  1.0000
  H   H27       1.0  0.62170  0.22820  0.12170  1.0000
  O   O52       1.0  0.55460  0.18320  0.24130  1.0000
  O   O53       1.0  0.55460  0.24130  0.18320  1.0000
  O   O54       1.0  0.68320  0.24130  0.05460  1.0000
  C   C82       1.0  0.61500  0.67790  0.67790  1.0000
  C   C83       1.0  0.57020  0.70250  0.70250  1.0000
  O   O55       1.0  0.74130  0.55460  0.68320  1.0000
  O   O56       1.0  0.74130  0.68320  0.55460  1.0000
  C   C84       1.0  0.67790  0.61500  0.67790  1.0000
  C   C85       1.0  0.70250  0.57020  0.70250  1.0000
  C   C86       1.0  0.67790  0.67790  0.61500  1.0000
  C   C87       1.0  0.70250  0.70250  0.57020  1.0000
  O   O57       1.0  0.68320  0.55460  0.74130  1.0000
  C   C88       1.0  0.69880  0.63630  0.63630  1.0000
  H   H28       1.0  0.72820  0.62170  0.62170  1.0000
  C   C89       1.0  0.63630  0.69880  0.63630  1.0000
  H   H29       1.0  0.62170  0.72820  0.62170  1.0000
  C   C90       1.0  0.63630  0.63630  0.69880  1.0000
  H   H30       1.0  0.62170  0.62170  0.72820  1.0000
  O   O58       1.0  0.55460  0.68320  0.74130  1.0000
  O   O59       1.0  0.55460  0.74130  0.68320  1.0000
  O   O60       1.0  0.68320  0.74130  0.55460  1.0000
  O   O61       1.0  0.24130  0.05460  0.68320  1.0000
  O   O62       1.0  0.18320  0.05460  0.74130  1.0000
  O   O63       1.0  0.24130  0.18320  0.55460  1.0000
  C   C91       1.0  0.17790  0.17790  0.61500  1.0000
  C   C92       1.0  0.20250  0.20250  0.57020  1.0000
  C   C93       1.0  0.13630  0.13630  0.69880  1.0000
  H   H31       1.0  0.12170  0.12170  0.72820  1.0000
  C   C94       1.0  0.13630  0.19880  0.63630  1.0000
  C   C95       1.0  0.17790  0.11500  0.67790  1.0000
  C   C96       1.0  0.19880  0.13630  0.63630  1.0000
  H   H32       1.0  0.22820  0.12170  0.62170  1.0000
  H   H33       1.0  0.12170  0.22820  0.62170  1.0000
  C   C97       1.0  0.20250  0.07020  0.70250  1.0000
  C   C98       1.0  0.11500  0.17790  0.67790  1.0000
  C   C99       1.0  0.07020  0.20250  0.70250  1.0000
  O   O64       1.0  0.05460  0.18320  0.74130  1.0000
  O   O65       1.0  0.18320  0.24130  0.55460  1.0000
  O   O66       1.0  0.05460  0.24130  0.68320  1.0000
  O   O67       1.0  0.24130  0.55460  0.18320  1.0000
  C   C100      1.0  0.17790  0.67790  0.11500  1.0000
  C   C101      1.0  0.20250  0.70250  0.07020  1.0000
  O   O68       1.0  0.18320  0.55460  0.24130  1.0000
  O   O69       1.0  0.24130  0.68320  0.05460  1.0000
  C   C102      1.0  0.13630  0.69880  0.13630  1.0000
  H   H34       1.0  0.12170  0.72820  0.12170  1.0000
  C   C103      1.0  0.13630  0.63630  0.19880  1.0000
  H   H35       1.0  0.12170  0.62170  0.22820  1.0000
  C   C104      1.0  0.17790  0.61500  0.17790  1.0000
  C   C105      1.0  0.20250  0.57020  0.20250  1.0000
  C   C106      1.0  0.19880  0.63630  0.13630  1.0000
  H   H36       1.0  0.22820  0.62170  0.12170  1.0000
  O   O70       1.0  0.05460  0.74130  0.18320  1.0000
  O   O71       1.0  0.05460  0.68320  0.24130  1.0000
  O   O72       1.0  0.18320  0.74130  0.05460  1.0000
  C   C107      1.0  0.11500  0.67790  0.17790  1.0000
  C   C108      1.0  0.07020  0.70250  0.20250  1.0000
  C   C109      1.0  0.36370  0.80120  0.13630  1.0000
  H   H37       1.0  0.37830  0.77180  0.12170  1.0000
  O   O73       1.0  0.31680  0.94540  0.24130  1.0000
  O   O74       1.0  0.25870  0.94540  0.18320  1.0000
  O   O75       1.0  0.25870  0.81680  0.05460  1.0000
  C   C110      1.0  0.36370  0.86370  0.19880  1.0000
  H   H38       1.0  0.37830  0.87830  0.22820  1.0000
  C   C111      1.0  0.32210  0.82210  0.11500  1.0000
  C   C112      1.0  0.29750  0.79750  0.07020  1.0000
  C   C113      1.0  0.32210  0.88500  0.17790  1.0000
  C   C114      1.0  0.29750  0.92980  0.20250  1.0000
  O   O76       1.0  0.44540  0.75870  0.18320  1.0000
  C   C115      1.0  0.30120  0.86370  0.13630  1.0000
  H   H39       1.0  0.27180  0.87830  0.12170  1.0000
  O   O77       1.0  0.44540  0.81680  0.24130  1.0000
  O   O78       1.0  0.31680  0.75870  0.05460  1.0000
  C   C116      1.0  0.38500  0.82210  0.17790  1.0000
  C   C117      1.0  0.42980  0.79750  0.20250  1.0000
  C   C118      1.0  0.36370  0.30120  0.63630  1.0000
  H   H40       1.0  0.37830  0.27180  0.62170  1.0000
  O   O79       1.0  0.31680  0.44540  0.74130  1.0000
  O   O80       1.0  0.25870  0.44540  0.68320  1.0000
  O   O81       1.0  0.25870  0.31680  0.55460  1.0000
  C   C119      1.0  0.32210  0.38500  0.67790  1.0000
  C   C120      1.0  0.36370  0.36370  0.69880  1.0000
  C   C121      1.0  0.29750  0.42980  0.70250  1.0000
  O   O82       1.0  0.44540  0.31680  0.74130  1.0000
  C   C122      1.0  0.32210  0.32210  0.61500  1.0000
  C   C123      1.0  0.29750  0.29750  0.57020  1.0000
  C   C124      1.0  0.30120  0.36370  0.63630  1.0000
  O   O83       1.0  0.44540  0.25870  0.68320  1.0000
  C   C125      1.0  0.38500  0.32210  0.67790  1.0000
  C   C126      1.0  0.42980  0.29750  0.70250  1.0000
  H   H41       1.0  0.37830  0.37830  0.72820  1.0000
  O   O84       1.0  0.31680  0.25870  0.55460  1.0000
  H   H42       1.0  0.27180  0.37830  0.62170  1.0000
  C   C127      1.0  0.86370  0.80120  0.63630  1.0000
  H   H43       1.0  0.87830  0.77180  0.62170  1.0000
  C   C128      1.0  0.82210  0.82210  0.61500  1.0000
  C   C129      1.0  0.79750  0.79750  0.57020  1.0000
  O   O85       1.0  0.81680  0.94540  0.74130  1.0000
  C   C130      1.0  0.86370  0.86370  0.69880  1.0000
  H   H44       1.0  0.87830  0.87830  0.72820  1.0000
  O   O86       1.0  0.75870  0.94540  0.68320  1.0000
  C   C131      1.0  0.82210  0.88500  0.67790  1.0000
  C   C132      1.0  0.79750  0.92980  0.70250  1.0000
  O   O87       1.0  0.75870  0.81680  0.55460  1.0000
  O   O88       1.0  0.94540  0.75870  0.68320  1.0000
  O   O89       1.0  0.94540  0.81680  0.74130  1.0000
  O   O90       1.0  0.81680  0.75870  0.55460  1.0000
  C   C133      1.0  0.88500  0.82210  0.67790  1.0000
  C   C134      1.0  0.92980  0.79750  0.70250  1.0000
  C   C135      1.0  0.80120  0.86370  0.63630  1.0000
  H   H45       1.0  0.77180  0.87830  0.62170  1.0000
  C   C136      1.0  0.86370  0.30120  0.13630  1.0000
  H   H46       1.0  0.87830  0.27180  0.12170  1.0000
  C   C137      1.0  0.82210  0.32210  0.11500  1.0000
  C   C138      1.0  0.79750  0.29750  0.07020  1.0000
  O   O91       1.0  0.81680  0.44540  0.24130  1.0000
  C   C139      1.0  0.86370  0.36370  0.19880  1.0000
  H   H47       1.0  0.87830  0.37830  0.22820  1.0000
  O   O92       1.0  0.75870  0.44540  0.18320  1.0000
  C   C140      1.0  0.82210  0.38500  0.17790  1.0000
  O   O93       1.0  0.75870  0.31680  0.05460  1.0000
  C   C141      1.0  0.79750  0.42980  0.20250  1.0000
  O   O94       1.0  0.94540  0.25870  0.18320  1.0000
  C   C142      1.0  0.88500  0.32210  0.17790  1.0000
  C   C143      1.0  0.92980  0.29750  0.20250  1.0000
  O   O95       1.0  0.81680  0.25870  0.05460  1.0000
  O   O96       1.0  0.94540  0.31680  0.24130  1.0000
  C   C144      1.0  0.80120  0.36370  0.13630  1.0000
  H   H48       1.0  0.77180  0.37830  0.12170  1.0000
  C   C145      1.0  0.13630  0.30120  0.13630  1.0000
  H   H49       1.0  0.12170  0.27180  0.12170  1.0000
  O   O97       1.0  0.24130  0.31680  0.05460  1.0000
  O   O98       1.0  0.24130  0.44540  0.18320  1.0000
  O   O99       1.0  0.18320  0.44540  0.24130  1.0000
  C   C146      1.0  0.19880  0.36370  0.13630  1.0000
  H   H50       1.0  0.22820  0.37830  0.12170  1.0000
  O   O100      1.0  0.18320  0.25870  0.05460  1.0000
  C   C147      1.0  0.11500  0.32210  0.17790  1.0000
  C   C148      1.0  0.07020  0.29750  0.20250  1.0000
  O   O101      1.0  0.05460  0.31680  0.24130  1.0000
  O   O102      1.0  0.05460  0.25870  0.18320  1.0000
  C   C149      1.0  0.17790  0.38500  0.17790  1.0000
  C   C150      1.0  0.20250  0.42980  0.20250  1.0000
  C   C151      1.0  0.13630  0.36370  0.19880  1.0000
  H   H51       1.0  0.12170  0.37830  0.22820  1.0000
  C   C152      1.0  0.17790  0.32210  0.11500  1.0000
  C   C153      1.0  0.20250  0.29750  0.07020  1.0000
  O   O103      1.0  0.24130  0.81680  0.55460  1.0000
  C   C154      1.0  0.13630  0.80120  0.63630  1.0000
  H   H52       1.0  0.12170  0.77180  0.62170  1.0000
  O   O104      1.0  0.24130  0.94540  0.68320  1.0000
  C   C155      1.0  0.19880  0.86370  0.63630  1.0000
  H   H53       1.0  0.22820  0.87830  0.62170  1.0000
  O   O105      1.0  0.18320  0.94540  0.74130  1.0000
  O   O106      1.0  0.18320  0.75870  0.55460  1.0000
  C   C156      1.0  0.11500  0.82210  0.67790  1.0000
  C   C157      1.0  0.07020  0.79750  0.70250  1.0000
  O   O107      1.0  0.05460  0.75870  0.68320  1.0000
  C   C158      1.0  0.13630  0.86370  0.69880  1.0000
  H   H54       1.0  0.12170  0.87830  0.72820  1.0000
  C   C159      1.0  0.17790  0.88500  0.67790  1.0000
  C   C160      1.0  0.20250  0.92980  0.70250  1.0000
  O   O108      1.0  0.05460  0.81680  0.74130  1.0000
  C   C161      1.0  0.17790  0.82210  0.61500  1.0000
  C   C162      1.0  0.20250  0.79750  0.57020  1.0000
  O   O109      1.0  0.74130  0.31680  0.55460  1.0000
  C   C163      1.0  0.63630  0.30120  0.63630  1.0000
  H   H55       1.0  0.62170  0.27180  0.62170  1.0000
  O   O110      1.0  0.74130  0.44540  0.68320  1.0000
  C   C164      1.0  0.61500  0.32210  0.67790  1.0000
  C   C165      1.0  0.57020  0.29750  0.70250  1.0000
  C   C166      1.0  0.69880  0.36370  0.63630  1.0000
  H   H56       1.0  0.72820  0.37830  0.62170  1.0000
  O   O111      1.0  0.68320  0.44540  0.74130  1.0000
  O   O112      1.0  0.68320  0.25870  0.55460  1.0000
  O   O113      1.0  0.55460  0.31680  0.74130  1.0000
  C   C167      1.0  0.67790  0.38500  0.67790  1.0000
  C   C168      1.0  0.70250  0.42980  0.70250  1.0000
  O   O114      1.0  0.55460  0.25870  0.68320  1.0000
  C   C169      1.0  0.67790  0.32210  0.61500  1.0000
  C   C170      1.0  0.70250  0.29750  0.57020  1.0000
  C   C171      1.0  0.63630  0.36370  0.69880  1.0000
  H   H57       1.0  0.62170  0.37830  0.72820  1.0000
  O   O115      1.0  0.74130  0.81680  0.05460  1.0000
  O   O116      1.0  0.74130  0.94540  0.18320  1.0000
  C   C172      1.0  0.63630  0.80120  0.13630  1.0000
  H   H58       1.0  0.62170  0.77180  0.12170  1.0000
  C   C173      1.0  0.69880  0.86370  0.13630  1.0000
  H   H59       1.0  0.72820  0.87830  0.12170  1.0000
  O   O117      1.0  0.68320  0.94540  0.24130  1.0000
  O   O118      1.0  0.68320  0.75870  0.05460  1.0000
  C   C174      1.0  0.67790  0.88500  0.17790  1.0000
  C   C175      1.0  0.70250  0.92980  0.20250  1.0000
  C   C176      1.0  0.61500  0.82210  0.17790  1.0000
  C   C177      1.0  0.57020  0.79750  0.20250  1.0000
  C   C178      1.0  0.67790  0.82210  0.11500  1.0000
  C   C179      1.0  0.70250  0.79750  0.07020  1.0000
  O   O119      1.0  0.55460  0.75870  0.18320  1.0000
  C   C180      1.0  0.63630  0.86370  0.19880  1.0000
  H   H60       1.0  0.62170  0.87830  0.22820  1.0000
  O   O120      1.0  0.55460  0.81680  0.24130  1.0000
  C   C181      1.0  0.82210  0.67790  0.11500  1.0000
  C   C182      1.0  0.79750  0.70250  0.07020  1.0000
  C   C183      1.0  0.86370  0.63630  0.19880  1.0000
  H   H61       1.0  0.87830  0.62170  0.22820  1.0000
  O   O121      1.0  0.81680  0.55460  0.24130  1.0000
  O   O122      1.0  0.75870  0.68320  0.05460  1.0000
  C   C184      1.0  0.86370  0.69880  0.13630  1.0000
  H   H62       1.0  0.87830  0.72820  0.12170  1.0000
  C   C185      1.0  0.88500  0.67790  0.17790  1.0000
  C   C186      1.0  0.92980  0.70250  0.20250  1.0000
  O   O123      1.0  0.75870  0.55460  0.18320  1.0000
  O   O124      1.0  0.94540  0.68320  0.24130  1.0000
  C   C187      1.0  0.82210  0.61500  0.17790  1.0000
  C   C188      1.0  0.79750  0.57020  0.20250  1.0000
  O   O125      1.0  0.81680  0.74130  0.05460  1.0000
  O   O126      1.0  0.94540  0.74130  0.18320  1.0000
  C   C189      1.0  0.80120  0.63630  0.13630  1.0000
  H   H63       1.0  0.77180  0.62170  0.12170  1.0000
  C   C190      1.0  0.86370  0.13630  0.69880  1.0000
  O   O127      1.0  0.81680  0.05460  0.74130  1.0000
  C   C191      1.0  0.82210  0.17790  0.61500  1.0000
  C   C192      1.0  0.79750  0.20250  0.57020  1.0000
  C   C193      1.0  0.88500  0.17790  0.67790  1.0000
  C   C194      1.0  0.92980  0.20250  0.70250  1.0000
  O   O128      1.0  0.75870  0.18320  0.55460  1.0000
  H   H64       1.0  0.87830  0.12170  0.72820  1.0000
  C   C195      1.0  0.86370  0.19880  0.63630  1.0000
  H   H65       1.0  0.87830  0.22820  0.62170  1.0000
  O   O129      1.0  0.75870  0.05460  0.68320  1.0000
  C   C196      1.0  0.82210  0.11500  0.67790  1.0000
  C   C197      1.0  0.79750  0.07020  0.70250  1.0000
  O   O130      1.0  0.94540  0.18320  0.74130  1.0000
  O   O131      1.0  0.81680  0.24130  0.55460  1.0000
  O   O132      1.0  0.94540  0.24130  0.68320  1.0000
  C   C198      1.0  0.80120  0.13630  0.63630  1.0000
  H   H66       1.0  0.77180  0.12170  0.62170  1.0000
  C   C199      1.0  0.32210  0.61500  0.67790  1.0000
  C   C200      1.0  0.29750  0.57020  0.70250  1.0000
  O   O133      1.0  0.31680  0.55460  0.74130  1.0000
  O   O134      1.0  0.25870  0.68320  0.55460  1.0000
  C   C201      1.0  0.36370  0.63630  0.69880  1.0000
  H   H67       1.0  0.37830  0.62170  0.72820  1.0000
  C   C202      1.0  0.36370  0.69880  0.63630  1.0000
  H   H68       1.0  0.37830  0.72820  0.62170  1.0000
  C   C203      1.0  0.38500  0.67790  0.67790  1.0000
  C   C204      1.0  0.42980  0.70250  0.70250  1.0000
  O   O135      1.0  0.25870  0.55460  0.68320  1.0000
  O   O136      1.0  0.44540  0.68320  0.74130  1.0000
  O   O137      1.0  0.31680  0.74130  0.55460  1.0000
  C   C205      1.0  0.30120  0.63630  0.63630  1.0000
  H   H69       1.0  0.27180  0.62170  0.62170  1.0000
  C   C206      1.0  0.32210  0.67790  0.61500  1.0000
  C   C207      1.0  0.29750  0.70250  0.57020  1.0000
  O   O138      1.0  0.44540  0.74130  0.68320  1.0000
  C   C208      1.0  0.32210  0.11500  0.17790  1.0000
  C   C209      1.0  0.29750  0.07020  0.20250  1.0000
  O   O139      1.0  0.31680  0.05460  0.24130  1.0000
  C   C210      1.0  0.32210  0.17790  0.11500  1.0000
  O   O140      1.0  0.25870  0.18320  0.05460  1.0000
  C   C211      1.0  0.29750  0.20250  0.07020  1.0000
  C   C212      1.0  0.38500  0.17790  0.17790  1.0000
  C   C213      1.0  0.36370  0.13630  0.19880  1.0000
  C   C214      1.0  0.42980  0.20250  0.20250  1.0000
  H   H70       1.0  0.37830  0.12170  0.22820  1.0000
  O   O141      1.0  0.25870  0.05460  0.18320  1.0000
  C   C215      1.0  0.36370  0.19880  0.13630  1.0000
  H   H71       1.0  0.37830  0.22820  0.12170  1.0000
  O   O142      1.0  0.44540  0.18320  0.24130  1.0000
  O   O143      1.0  0.31680  0.24130  0.05460  1.0000
  C   C216      1.0  0.30120  0.13630  0.13630  1.0000
  H   H72       1.0  0.27180  0.12170  0.12170  1.0000
  O   O144      1.0  0.44540  0.24130  0.18320  1.0000
  C   C217      1.0  0.11500  0.67790  0.82210  1.0000
  C   C218      1.0  0.07020  0.70250  0.79750  1.0000
  C   C219      1.0  0.17790  0.67790  0.88500  1.0000
  C   C220      1.0  0.20250  0.70250  0.92980  1.0000
  O   O145      1.0  0.18320  0.55460  0.75870  1.0000
  O   O146      1.0  0.24130  0.55460  0.81680  1.0000
  O   O147      1.0  0.24130  0.68320  0.94540  1.0000
  C   C221      1.0  0.13630  0.69880  0.86370  1.0000
  H   H73       1.0  0.12170  0.72820  0.87830  1.0000
  C   C222      1.0  0.13630  0.63630  0.80120  1.0000
  H   H74       1.0  0.12170  0.62170  0.77180  1.0000
  C   C223      1.0  0.17790  0.61500  0.82210  1.0000
  C   C224      1.0  0.20250  0.57020  0.79750  1.0000
  C   C225      1.0  0.19880  0.63630  0.86370  1.0000
  H   H75       1.0  0.22820  0.62170  0.87830  1.0000
  O   O148      1.0  0.18320  0.74130  0.94540  1.0000
  O   O149      1.0  0.05460  0.68320  0.75870  1.0000
  O   O150      1.0  0.05460  0.74130  0.81680  1.0000
  O   O151      1.0  0.18320  0.05460  0.25870  1.0000
  C   C226      1.0  0.17790  0.17790  0.38500  1.0000
  C   C227      1.0  0.20250  0.20250  0.42980  1.0000
  O   O152      1.0  0.24130  0.05460  0.31680  1.0000
  O   O153      1.0  0.24130  0.18320  0.44540  1.0000
  C   C228      1.0  0.11500  0.17790  0.32210  1.0000
  C   C229      1.0  0.13630  0.13630  0.30120  1.0000
  C   C230      1.0  0.07020  0.20250  0.29750  1.0000
  C   C231      1.0  0.13630  0.19880  0.36370  1.0000
  H   H76       1.0  0.12170  0.22820  0.37830  1.0000
  C   C232      1.0  0.19880  0.13630  0.36370  1.0000
  H   H77       1.0  0.22820  0.12170  0.37830  1.0000
  H   H78       1.0  0.12170  0.12170  0.27180  1.0000
  O   O154      1.0  0.05460  0.24130  0.31680  1.0000
  O   O155      1.0  0.05460  0.18320  0.25870  1.0000
  O   O156      1.0  0.18320  0.24130  0.44540  1.0000
  C   C233      1.0  0.17790  0.11500  0.32210  1.0000
  C   C234      1.0  0.20250  0.07020  0.29750  1.0000
  C   C235      1.0  0.67790  0.67790  0.38500  1.0000
  C   C236      1.0  0.70250  0.70250  0.42980  1.0000
  C   C237      1.0  0.61500  0.67790  0.32210  1.0000
  C   C238      1.0  0.57020  0.70250  0.29750  1.0000
  O   O157      1.0  0.68320  0.55460  0.25870  1.0000
  O   O158      1.0  0.74130  0.55460  0.31680  1.0000
  O   O159      1.0  0.74130  0.68320  0.44540  1.0000
  C   C239      1.0  0.69880  0.63630  0.36370  1.0000
  H   H79       1.0  0.72820  0.62170  0.37830  1.0000
  C   C240      1.0  0.63630  0.69880  0.36370  1.0000
  H   H80       1.0  0.62170  0.72820  0.37830  1.0000
  C   C241      1.0  0.63630  0.63630  0.30120  1.0000
  H   H81       1.0  0.62170  0.62170  0.27180  1.0000
  O   O160      1.0  0.55460  0.74130  0.31680  1.0000
  O   O161      1.0  0.68320  0.74130  0.44540  1.0000
  O   O162      1.0  0.55460  0.68320  0.25870  1.0000
  C   C242      1.0  0.67790  0.61500  0.32210  1.0000
  C   C243      1.0  0.70250  0.57020  0.29750  1.0000
  C   C244      1.0  0.67790  0.17790  0.88500  1.0000
  C   C245      1.0  0.70250  0.20250  0.92980  1.0000
  O   O163      1.0  0.55460  0.18320  0.75870  1.0000
  O   O164      1.0  0.68320  0.05460  0.75870  1.0000
  O   O165      1.0  0.74130  0.05460  0.81680  1.0000
  O   O166      1.0  0.74130  0.18320  0.94540  1.0000
  C   C246      1.0  0.69880  0.13630  0.86370  1.0000
  C   C247      1.0  0.61500  0.17790  0.82210  1.0000
  H   H82       1.0  0.72820  0.12170  0.87830  1.0000
  C   C248      1.0  0.57020  0.20250  0.79750  1.0000
  C   C249      1.0  0.63630  0.13630  0.80120  1.0000
  C   C250      1.0  0.70250  0.07020  0.79750  1.0000
  C   C251      1.0  0.63630  0.19880  0.86370  1.0000
  H   H83       1.0  0.62170  0.22820  0.87830  1.0000
  H   H84       1.0  0.62170  0.12170  0.77180  1.0000
  O   O167      1.0  0.55460  0.24130  0.81680  1.0000
  C   C252      1.0  0.67790  0.11500  0.82210  1.0000
  O   O168      1.0  0.68320  0.24130  0.94540  1.0000
  O   O169      1.0  0.75870  0.44540  0.81680  1.0000
  C   C253      1.0  0.80120  0.36370  0.86370  1.0000
  C   C254      1.0  0.82210  0.38500  0.82210  1.0000
  H   H85       1.0  0.77180  0.37830  0.87830  1.0000
  O   O170      1.0  0.81680  0.44540  0.75870  1.0000
  C   C255      1.0  0.82210  0.32210  0.88500  1.0000
  O   O171      1.0  0.75870  0.31680  0.94540  1.0000
  C   C256      1.0  0.79750  0.29750  0.92980  1.0000
  C   C257      1.0  0.88500  0.32210  0.82210  1.0000
  C   C258      1.0  0.92980  0.29750  0.79750  1.0000
  C   C259      1.0  0.86370  0.36370  0.80120  1.0000
  C   C260      1.0  0.79750  0.42980  0.79750  1.0000
  O   O172      1.0  0.94540  0.25870  0.81680  1.0000
  H   H86       1.0  0.87830  0.37830  0.77180  1.0000
  O   O173      1.0  0.94540  0.31680  0.75870  1.0000
  C   C261      1.0  0.86370  0.30120  0.86370  1.0000
  H   H87       1.0  0.87830  0.27180  0.87830  1.0000
  O   O174      1.0  0.81680  0.25870  0.94540  1.0000
  O   O175      1.0  0.75870  0.94540  0.31680  1.0000
  C   C262      1.0  0.80120  0.86370  0.36370  1.0000
  H   H88       1.0  0.77180  0.87830  0.37830  1.0000
  C   C263      1.0  0.88500  0.82210  0.32210  1.0000
  C   C264      1.0  0.86370  0.86370  0.30120  1.0000
  O   O176      1.0  0.75870  0.81680  0.44540  1.0000
  C   C265      1.0  0.92980  0.79750  0.29750  1.0000
  C   C266      1.0  0.82210  0.82210  0.38500  1.0000
  C   C267      1.0  0.79750  0.79750  0.42980  1.0000
  H   H89       1.0  0.87830  0.87830  0.27180  1.0000
  O   O177      1.0  0.81680  0.94540  0.25870  1.0000
  O   O178      1.0  0.94540  0.81680  0.25870  1.0000
  C   C268      1.0  0.82210  0.88500  0.32210  1.0000
  C   C269      1.0  0.79750  0.92980  0.29750  1.0000
  O   O179      1.0  0.94540  0.75870  0.31680  1.0000
  C   C270      1.0  0.86370  0.80120  0.36370  1.0000
  H   H90       1.0  0.87830  0.77180  0.37830  1.0000
  O   O180      1.0  0.81680  0.75870  0.44540  1.0000
  O   O181      1.0  0.25870  0.44540  0.31680  1.0000
  C   C271      1.0  0.30120  0.36370  0.36370  1.0000
  H   H91       1.0  0.27180  0.37830  0.37830  1.0000
  O   O182      1.0  0.25870  0.31680  0.44540  1.0000
  O   O183      1.0  0.31680  0.44540  0.25870  1.0000
  C   C272      1.0  0.38500  0.32210  0.32210  1.0000
  C   C273      1.0  0.42980  0.29750  0.29750  1.0000
  C   C274      1.0  0.32210  0.32210  0.38500  1.0000
  C   C275      1.0  0.29750  0.29750  0.42980  1.0000
  C   C276      1.0  0.36370  0.36370  0.30120  1.0000
  H   H92       1.0  0.37830  0.37830  0.27180  1.0000
  C   C277      1.0  0.32210  0.38500  0.32210  1.0000
  C   C278      1.0  0.29750  0.42980  0.29750  1.0000
  O   O184      1.0  0.44540  0.31680  0.25870  1.0000
  O   O185      1.0  0.44540  0.25870  0.31680  1.0000
  C   C279      1.0  0.36370  0.30120  0.36370  1.0000
  H   H93       1.0  0.37830  0.27180  0.37830  1.0000
  O   O186      1.0  0.31680  0.25870  0.44540  1.0000
  C   C280      1.0  0.30120  0.86370  0.86370  1.0000
  H   H94       1.0  0.27180  0.87830  0.87830  1.0000
  O   O187      1.0  0.25870  0.94540  0.81680  1.0000
  C   C281      1.0  0.32210  0.82210  0.88500  1.0000
  O   O188      1.0  0.25870  0.81680  0.94540  1.0000
  C   C282      1.0  0.38500  0.82210  0.82210  1.0000
  C   C283      1.0  0.42980  0.79750  0.79750  1.0000
  C   C284      1.0  0.36370  0.86370  0.80120  1.0000
  H   H95       1.0  0.37830  0.87830  0.77180  1.0000
  H   H96       1.0  0.37830  0.77180  0.87830  1.0000
  O   O189      1.0  0.31680  0.94540  0.75870  1.0000
  C   C285      1.0  0.32210  0.88500  0.82210  1.0000
  C   C286      1.0  0.29750  0.92980  0.79750  1.0000
  O   O190      1.0  0.44540  0.81680  0.75870  1.0000
  O   O191      1.0  0.44540  0.75870  0.81680  1.0000
  O   O192      1.0  0.31680  0.75870  0.94540  1.0000
  C   C287      1.0  0.36370  0.80120  0.86370  1.0000
  C   C288      1.0  0.29750  0.79750  0.92980  1.0000
  Cl  Cl1       1.0  0.14539  0.14539  0.00000  1.0000
  Cl  Cl2       1.0  0.14539  0.64539  0.50000  1.0000
  Cl  Cl3       1.0  0.64539  0.14539  0.50000  1.0000
  Cl  Cl4       1.0  0.64539  0.64539  0.00000  1.0000
  Cl  Cl5       1.0  0.85461  0.85461  0.00000  1.0000
  Cl  Cl6       1.0  0.85461  0.35461  0.50000  1.0000
  Cl  Cl7       1.0  0.35461  0.85461  0.50000  1.0000
  Cl  Cl8       1.0  0.35461  0.35461  0.00000  1.0000
  Cl  Cl9       1.0  0.85461  0.14539  0.00000  1.0000
  Cl  Cl10      1.0  0.85461  0.64539  0.50000  1.0000
  Cl  Cl11      1.0  0.35461  0.14539  0.50000  1.0000
  Cl  Cl12      1.0  0.35461  0.64539  0.00000  1.0000
  Cl  Cl13      1.0  0.14539  0.85461  0.00000  1.0000
  Cl  Cl14      1.0  0.14539  0.35461  0.50000  1.0000
  Cl  Cl15      1.0  0.64539  0.85461  0.50000  1.0000
  Cl  Cl16      1.0  0.64539  0.35461  0.00000  1.0000
  Cl  Cl17      1.0  0.00000  0.14539  0.14539  1.0000
  Cl  Cl18      1.0  0.00000  0.64539  0.64539  1.0000
  Cl  Cl19      1.0  0.50000  0.14539  0.64539  1.0000
  Cl  Cl20      1.0  0.50000  0.64539  0.14539  1.0000
  Cl  Cl21      1.0  0.00000  0.85461  0.85461  1.0000
  Cl  Cl22      1.0  0.00000  0.35461  0.35461  1.0000
  Cl  Cl23      1.0  0.50000  0.85461  0.35461  1.0000
  Cl  Cl24      1.0  0.50000  0.35461  0.85461  1.0000
  Cl  Cl25      1.0  0.00000  0.85461  0.14539  1.0000
  Cl  Cl26      1.0  0.00000  0.35461  0.64539  1.0000
  Cl  Cl27      1.0  0.50000  0.85461  0.64539  1.0000
  Cl  Cl28      1.0  0.50000  0.35461  0.14539  1.0000
  Cl  Cl29      1.0  0.00000  0.14539  0.85461  1.0000
  Cl  Cl30      1.0  0.00000  0.64539  0.35461  1.0000
  Cl  Cl31      1.0  0.50000  0.14539  0.35461  1.0000
  Cl  Cl32      1.0  0.50000  0.64539  0.85461  1.0000
  Cl  Cl33      1.0  0.14539  0.00000  0.14539  1.0000
  Cl  Cl34      1.0  0.14539  0.50000  0.64539  1.0000
  Cl  Cl35      1.0  0.64539  0.00000  0.64539  1.0000
  Cl  Cl36      1.0  0.64539  0.50000  0.14539  1.0000
  Cl  Cl37      1.0  0.85461  0.00000  0.85461  1.0000
  Cl  Cl38      1.0  0.85461  0.50000  0.35461  1.0000
  Cl  Cl39      1.0  0.35461  0.00000  0.35461  1.0000
  Cl  Cl40      1.0  0.35461  0.50000  0.85461  1.0000
  Cl  Cl41      1.0  0.14539  0.00000  0.85461  1.0000
  Cl  Cl42      1.0  0.14539  0.50000  0.35461  1.0000
  Cl  Cl43      1.0  0.64539  0.00000  0.35461  1.0000
  Cl  Cl44      1.0  0.64539  0.50000  0.85461  1.0000
  Cl  Cl45      1.0  0.85461  0.00000  0.14539  1.0000
  Cl  Cl46      1.0  0.85461  0.50000  0.64539  1.0000
  Cl  Cl47      1.0  0.35461  0.00000  0.64539  1.0000
  Cl  Cl48      1.0  0.35461  0.50000  0.14539  1.0000
  Mn  Mn1       1.0  0.20777  0.00000  0.20777  1.0000
  Mn  Mn2       1.0  0.20777  0.50000  0.70777  1.0000
  Mn  Mn3       1.0  0.70777  0.00000  0.70777  1.0000
  Mn  Mn4       1.0  0.70777  0.50000  0.20777  1.0000
  Mn  Mn5       1.0  0.79223  0.00000  0.79223  1.0000
  Mn  Mn6       1.0  0.79223  0.50000  0.29223  1.0000
  Mn  Mn7       1.0  0.29223  0.00000  0.29223  1.0000
  Mn  Mn8       1.0  0.29223  0.50000  0.79223  1.0000
  Mn  Mn9       1.0  0.20777  0.00000  0.79223  1.0000
  Mn  Mn10      1.0  0.20777  0.50000  0.29223  1.0000
  Mn  Mn11      1.0  0.70777  0.00000  0.29223  1.0000
  Mn  Mn12      1.0  0.70777  0.50000  0.79223  1.0000
  Mn  Mn13      1.0  0.79223  0.00000  0.20777  1.0000
  Mn  Mn14      1.0  0.79223  0.50000  0.70777  1.0000
  Mn  Mn15      1.0  0.29223  0.00000  0.70777  1.0000
  Mn  Mn16      1.0  0.29223  0.50000  0.20777  1.0000
  Mn  Mn17      1.0  0.20777  0.20777  0.00000  1.0000
  Mn  Mn18      1.0  0.20777  0.70777  0.50000  1.0000
  Mn  Mn19      1.0  0.70777  0.20777  0.50000  1.0000
  Mn  Mn20      1.0  0.70777  0.70777  0.00000  1.0000
  Mn  Mn21      1.0  0.79223  0.79223  0.00000  1.0000
  Mn  Mn22      1.0  0.79223  0.29223  0.50000  1.0000
  Mn  Mn23      1.0  0.29223  0.79223  0.50000  1.0000
  Mn  Mn24      1.0  0.29223  0.29223  0.00000  1.0000
  Mn  Mn25      1.0  0.79223  0.20777  0.00000  1.0000
  Mn  Mn26      1.0  0.79223  0.70777  0.50000  1.0000
  Mn  Mn27      1.0  0.29223  0.20777  0.50000  1.0000
  Mn  Mn28      1.0  0.29223  0.70777  0.00000  1.0000
  Mn  Mn29      1.0  0.20777  0.79223  0.00000  1.0000
  Mn  Mn30      1.0  0.20777  0.29223  0.50000  1.0000
  Mn  Mn31      1.0  0.70777  0.79223  0.50000  1.0000
  Mn  Mn32      1.0  0.70777  0.29223  0.00000  1.0000
  Mn  Mn33      1.0  0.00000  0.20777  0.20777  1.0000
  Mn  Mn34      1.0  0.00000  0.70777  0.70777  1.0000
  Mn  Mn35      1.0  0.50000  0.20777  0.70777  1.0000
  Mn  Mn36      1.0  0.50000  0.70777  0.20777  1.0000
  Mn  Mn37      1.0  0.00000  0.79223  0.79223  1.0000
  Mn  Mn38      1.0  0.00000  0.29223  0.29223  1.0000
  Mn  Mn39      1.0  0.50000  0.79223  0.29223  1.0000
  Mn  Mn40      1.0  0.50000  0.29223  0.79223  1.0000
  Mn  Mn41      1.0  0.00000  0.79223  0.20777  1.0000
  Mn  Mn42      1.0  0.00000  0.29223  0.70777  1.0000
  Mn  Mn43      1.0  0.50000  0.79223  0.70777  1.0000
  Mn  Mn44      1.0  0.50000  0.29223  0.20777  1.0000
  Mn  Mn45      1.0  0.00000  0.20777  0.79223  1.0000
  Mn  Mn46      1.0  0.00000  0.70777  0.29223  1.0000
  Mn  Mn47      1.0  0.50000  0.20777  0.29223  1.0000
  Mn  Mn48      1.0  0.50000  0.70777  0.79223  1.0000
