data_ABAYIO_FSR\(2)
_audit_creation_date              2024-06-11
_audit_creation_method            'Materials Studio'
_symmetry_space_group_name_H-M    'P1'
_symmetry_Int_Tables_number       1
_symmetry_cell_setting            triclinic
loop_
_symmetry_equiv_pos_as_xyz
  x,y,z
_cell_length_a                    26.7710
_cell_length_b                    26.7710
_cell_length_c                    26.7710
_cell_angle_alpha                 90.0000
_cell_angle_beta                  90.0000
_cell_angle_gamma                 90.0000
loop_
_atom_site_label
_atom_site_type_symbol
_atom_site_fract_x
_atom_site_fract_y
_atom_site_fract_z
_atom_site_U_iso_or_equiv
_atom_site_adp_type
_atom_site_occupancy
O1     O     0.25870   0.18320   0.94540   0.00000  Uiso   1.00
O2     O     0.25870   0.68320   0.44540   0.00000  Uiso   1.00
O3     O     0.75870   0.18320   0.44540   0.00000  Uiso   1.00
O4     O     0.75870   0.68320   0.94540   0.00000  Uiso   1.00
O5     O     0.74130   0.81680   0.94540   0.00000  Uiso   1.00
O6     O     0.74130   0.31680   0.44540   0.00000  Uiso   1.00
O7     O     0.24130   0.81680   0.44540   0.00000  Uiso   1.00
O8     O     0.24130   0.31680   0.94540   0.00000  Uiso   1.00
O9     O     0.74130   0.18320   0.05460   0.00000  Uiso   1.00
O10    O     0.74130   0.68320   0.55460   0.00000  Uiso   1.00
O11    O     0.24130   0.18320   0.55460   0.00000  Uiso   1.00
O12    O     0.24130   0.68320   0.05460   0.00000  Uiso   1.00
O13    O     0.25870   0.81680   0.05460   0.00000  Uiso   1.00
O14    O     0.25870   0.31680   0.55460   0.00000  Uiso   1.00
O15    O     0.75870   0.81680   0.55460   0.00000  Uiso   1.00
O16    O     0.75870   0.31680   0.05460   0.00000  Uiso   1.00
O17    O     0.94540   0.25870   0.18320   0.00000  Uiso   1.00
O18    O     0.94540   0.75870   0.68320   0.00000  Uiso   1.00
O19    O     0.44540   0.25870   0.68320   0.00000  Uiso   1.00
O20    O     0.44540   0.75870   0.18320   0.00000  Uiso   1.00
O21    O     0.94540   0.74130   0.81680   0.00000  Uiso   1.00
O22    O     0.94540   0.24130   0.31680   0.00000  Uiso   1.00
O23    O     0.44540   0.74130   0.31680   0.00000  Uiso   1.00
O24    O     0.44540   0.24130   0.81680   0.00000  Uiso   1.00
O25    O     0.05460   0.74130   0.18320   0.00000  Uiso   1.00
O26    O     0.05460   0.24130   0.68320   0.00000  Uiso   1.00
O27    O     0.55460   0.74130   0.68320   0.00000  Uiso   1.00
O28    O     0.55460   0.24130   0.18320   0.00000  Uiso   1.00
O29    O     0.05460   0.25870   0.81680   0.00000  Uiso   1.00
O30    O     0.05460   0.75870   0.31680   0.00000  Uiso   1.00
O31    O     0.55460   0.25870   0.31680   0.00000  Uiso   1.00
O32    O     0.55460   0.75870   0.81680   0.00000  Uiso   1.00
O33    O     0.18320   0.94540   0.25870   0.00000  Uiso   1.00
O34    O     0.18320   0.44540   0.75870   0.00000  Uiso   1.00
O35    O     0.68320   0.94540   0.75870   0.00000  Uiso   1.00
O36    O     0.68320   0.44540   0.25870   0.00000  Uiso   1.00
O37    O     0.81680   0.94540   0.74130   0.00000  Uiso   1.00
O38    O     0.81680   0.44540   0.24130   0.00000  Uiso   1.00
O39    O     0.31680   0.94540   0.24130   0.00000  Uiso   1.00
O40    O     0.31680   0.44540   0.74130   0.00000  Uiso   1.00
O41    O     0.18320   0.05460   0.74130   0.00000  Uiso   1.00
O42    O     0.18320   0.55460   0.24130   0.00000  Uiso   1.00
O43    O     0.68320   0.05460   0.24130   0.00000  Uiso   1.00
O44    O     0.68320   0.55460   0.74130   0.00000  Uiso   1.00
O45    O     0.81680   0.05460   0.25870   0.00000  Uiso   1.00
O46    O     0.81680   0.55460   0.75870   0.00000  Uiso   1.00
O47    O     0.31680   0.05460   0.75870   0.00000  Uiso   1.00
O48    O     0.31680   0.55460   0.25870   0.00000  Uiso   1.00
O49    O     0.18320   0.25870   0.05460   0.00000  Uiso   1.00
O50    O     0.18320   0.75870   0.55460   0.00000  Uiso   1.00
O51    O     0.68320   0.25870   0.55460   0.00000  Uiso   1.00
O52    O     0.68320   0.75870   0.05460   0.00000  Uiso   1.00
O53    O     0.81680   0.74130   0.05460   0.00000  Uiso   1.00
O54    O     0.81680   0.24130   0.55460   0.00000  Uiso   1.00
O55    O     0.31680   0.74130   0.55460   0.00000  Uiso   1.00
O56    O     0.31680   0.24130   0.05460   0.00000  Uiso   1.00
O57    O     0.18320   0.74130   0.94540   0.00000  Uiso   1.00
O58    O     0.18320   0.24130   0.44540   0.00000  Uiso   1.00
O59    O     0.68320   0.74130   0.44540   0.00000  Uiso   1.00
O60    O     0.68320   0.24130   0.94540   0.00000  Uiso   1.00
O61    O     0.81680   0.25870   0.94540   0.00000  Uiso   1.00
O62    O     0.81680   0.75870   0.44540   0.00000  Uiso   1.00
O63    O     0.31680   0.25870   0.44540   0.00000  Uiso   1.00
O64    O     0.31680   0.75870   0.94540   0.00000  Uiso   1.00
O65    O     0.25870   0.94540   0.81680   0.00000  Uiso   1.00
O66    O     0.25870   0.44540   0.31680   0.00000  Uiso   1.00
O67    O     0.75870   0.94540   0.31680   0.00000  Uiso   1.00
O68    O     0.75870   0.44540   0.81680   0.00000  Uiso   1.00
O69    O     0.74130   0.94540   0.18320   0.00000  Uiso   1.00
O70    O     0.74130   0.44540   0.68320   0.00000  Uiso   1.00
O71    O     0.24130   0.94540   0.68320   0.00000  Uiso   1.00
O72    O     0.24130   0.44540   0.18320   0.00000  Uiso   1.00
O73    O     0.74130   0.05460   0.81680   0.00000  Uiso   1.00
O74    O     0.74130   0.55460   0.31680   0.00000  Uiso   1.00
O75    O     0.24130   0.05460   0.31680   0.00000  Uiso   1.00
O76    O     0.24130   0.55460   0.81680   0.00000  Uiso   1.00
O77    O     0.25870   0.05460   0.18320   0.00000  Uiso   1.00
O78    O     0.25870   0.55460   0.68320   0.00000  Uiso   1.00
O79    O     0.75870   0.05460   0.68320   0.00000  Uiso   1.00
O80    O     0.75870   0.55460   0.18320   0.00000  Uiso   1.00
O81    O     0.94540   0.18320   0.74130   0.00000  Uiso   1.00
O82    O     0.94540   0.68320   0.24130   0.00000  Uiso   1.00
O83    O     0.44540   0.18320   0.24130   0.00000  Uiso   1.00
O84    O     0.44540   0.68320   0.74130   0.00000  Uiso   1.00
O85    O     0.94540   0.81680   0.25870   0.00000  Uiso   1.00
O86    O     0.94540   0.31680   0.75870   0.00000  Uiso   1.00
O87    O     0.44540   0.81680   0.75870   0.00000  Uiso   1.00
O88    O     0.44540   0.31680   0.25870   0.00000  Uiso   1.00
O89    O     0.05460   0.18320   0.25870   0.00000  Uiso   1.00
O90    O     0.05460   0.68320   0.75870   0.00000  Uiso   1.00
O91    O     0.55460   0.18320   0.75870   0.00000  Uiso   1.00
O92    O     0.55460   0.68320   0.25870   0.00000  Uiso   1.00
O93    O     0.05460   0.81680   0.74130   0.00000  Uiso   1.00
O94    O     0.05460   0.31680   0.24130   0.00000  Uiso   1.00
O95    O     0.55460   0.81680   0.24130   0.00000  Uiso   1.00
O96    O     0.55460   0.31680   0.74130   0.00000  Uiso   1.00
O97    O     0.74130   0.81680   0.05460   0.00000  Uiso   1.00
O98    O     0.74130   0.31680   0.55460   0.00000  Uiso   1.00
O99    O     0.24130   0.81680   0.55460   0.00000  Uiso   1.00
O100   O     0.24130   0.31680   0.05460   0.00000  Uiso   1.00
O101   O     0.25870   0.18320   0.05460   0.00000  Uiso   1.00
O102   O     0.25870   0.68320   0.55460   0.00000  Uiso   1.00
O103   O     0.75870   0.18320   0.55460   0.00000  Uiso   1.00
O104   O     0.75870   0.68320   0.05460   0.00000  Uiso   1.00
O105   O     0.25870   0.81680   0.94540   0.00000  Uiso   1.00
O106   O     0.25870   0.31680   0.44540   0.00000  Uiso   1.00
O107   O     0.75870   0.81680   0.44540   0.00000  Uiso   1.00
O108   O     0.75870   0.31680   0.94540   0.00000  Uiso   1.00
O109   O     0.74130   0.18320   0.94540   0.00000  Uiso   1.00
O110   O     0.74130   0.68320   0.44540   0.00000  Uiso   1.00
O111   O     0.24130   0.18320   0.44540   0.00000  Uiso   1.00
O112   O     0.24130   0.68320   0.94540   0.00000  Uiso   1.00
O113   O     0.05460   0.74130   0.81680   0.00000  Uiso   1.00
O114   O     0.05460   0.24130   0.31680   0.00000  Uiso   1.00
O115   O     0.55460   0.74130   0.31680   0.00000  Uiso   1.00
O116   O     0.55460   0.24130   0.81680   0.00000  Uiso   1.00
O117   O     0.05460   0.25870   0.18320   0.00000  Uiso   1.00
O118   O     0.05460   0.75870   0.68320   0.00000  Uiso   1.00
O119   O     0.55460   0.25870   0.68320   0.00000  Uiso   1.00
O120   O     0.55460   0.75870   0.18320   0.00000  Uiso   1.00
O121   O     0.94540   0.25870   0.81680   0.00000  Uiso   1.00
O122   O     0.94540   0.75870   0.31680   0.00000  Uiso   1.00
O123   O     0.44540   0.25870   0.31680   0.00000  Uiso   1.00
O124   O     0.44540   0.75870   0.81680   0.00000  Uiso   1.00
O125   O     0.94540   0.74130   0.18320   0.00000  Uiso   1.00
O126   O     0.94540   0.24130   0.68320   0.00000  Uiso   1.00
O127   O     0.44540   0.74130   0.68320   0.00000  Uiso   1.00
O128   O     0.44540   0.24130   0.18320   0.00000  Uiso   1.00
O129   O     0.81680   0.05460   0.74130   0.00000  Uiso   1.00
O130   O     0.81680   0.55460   0.24130   0.00000  Uiso   1.00
O131   O     0.31680   0.05460   0.24130   0.00000  Uiso   1.00
O132   O     0.31680   0.55460   0.74130   0.00000  Uiso   1.00
O133   O     0.18320   0.05460   0.25870   0.00000  Uiso   1.00
O134   O     0.18320   0.55460   0.75870   0.00000  Uiso   1.00
O135   O     0.68320   0.05460   0.75870   0.00000  Uiso   1.00
O136   O     0.68320   0.55460   0.25870   0.00000  Uiso   1.00
O137   O     0.81680   0.94540   0.25870   0.00000  Uiso   1.00
O138   O     0.81680   0.44540   0.75870   0.00000  Uiso   1.00
O139   O     0.31680   0.94540   0.75870   0.00000  Uiso   1.00
O140   O     0.31680   0.44540   0.25870   0.00000  Uiso   1.00
O141   O     0.18320   0.94540   0.74130   0.00000  Uiso   1.00
O142   O     0.18320   0.44540   0.24130   0.00000  Uiso   1.00
O143   O     0.68320   0.94540   0.24130   0.00000  Uiso   1.00
O144   O     0.68320   0.44540   0.74130   0.00000  Uiso   1.00
O145   O     0.81680   0.74130   0.94540   0.00000  Uiso   1.00
O146   O     0.81680   0.24130   0.44540   0.00000  Uiso   1.00
O147   O     0.31680   0.74130   0.44540   0.00000  Uiso   1.00
O148   O     0.31680   0.24130   0.94540   0.00000  Uiso   1.00
O149   O     0.18320   0.25870   0.94540   0.00000  Uiso   1.00
O150   O     0.18320   0.75870   0.44540   0.00000  Uiso   1.00
O151   O     0.68320   0.25870   0.44540   0.00000  Uiso   1.00
O152   O     0.68320   0.75870   0.94540   0.00000  Uiso   1.00
O153   O     0.81680   0.25870   0.05460   0.00000  Uiso   1.00
O154   O     0.81680   0.75870   0.55460   0.00000  Uiso   1.00
O155   O     0.31680   0.25870   0.55460   0.00000  Uiso   1.00
O156   O     0.31680   0.75870   0.05460   0.00000  Uiso   1.00
O157   O     0.18320   0.74130   0.05460   0.00000  Uiso   1.00
O158   O     0.18320   0.24130   0.55460   0.00000  Uiso   1.00
O159   O     0.68320   0.74130   0.55460   0.00000  Uiso   1.00
O160   O     0.68320   0.24130   0.05460   0.00000  Uiso   1.00
O161   O     0.74130   0.05460   0.18320   0.00000  Uiso   1.00
O162   O     0.74130   0.55460   0.68320   0.00000  Uiso   1.00
O163   O     0.24130   0.05460   0.68320   0.00000  Uiso   1.00
O164   O     0.24130   0.55460   0.18320   0.00000  Uiso   1.00
O165   O     0.25870   0.05460   0.81680   0.00000  Uiso   1.00
O166   O     0.25870   0.55460   0.31680   0.00000  Uiso   1.00
O167   O     0.75870   0.05460   0.31680   0.00000  Uiso   1.00
O168   O     0.75870   0.55460   0.81680   0.00000  Uiso   1.00
O169   O     0.25870   0.94540   0.18320   0.00000  Uiso   1.00
O170   O     0.25870   0.44540   0.68320   0.00000  Uiso   1.00
O171   O     0.75870   0.94540   0.68320   0.00000  Uiso   1.00
O172   O     0.75870   0.44540   0.18320   0.00000  Uiso   1.00
O173   O     0.74130   0.94540   0.81680   0.00000  Uiso   1.00
O174   O     0.74130   0.44540   0.31680   0.00000  Uiso   1.00
O175   O     0.24130   0.94540   0.31680   0.00000  Uiso   1.00
O176   O     0.24130   0.44540   0.81680   0.00000  Uiso   1.00
O177   O     0.05460   0.81680   0.25870   0.00000  Uiso   1.00
O178   O     0.05460   0.31680   0.75870   0.00000  Uiso   1.00
O179   O     0.55460   0.81680   0.75870   0.00000  Uiso   1.00
O180   O     0.55460   0.31680   0.25870   0.00000  Uiso   1.00
O181   O     0.05460   0.18320   0.74130   0.00000  Uiso   1.00
O182   O     0.05460   0.68320   0.24130   0.00000  Uiso   1.00
O183   O     0.55460   0.18320   0.24130   0.00000  Uiso   1.00
O184   O     0.55460   0.68320   0.74130   0.00000  Uiso   1.00
O185   O     0.94540   0.81680   0.74130   0.00000  Uiso   1.00
O186   O     0.94540   0.31680   0.24130   0.00000  Uiso   1.00
O187   O     0.44540   0.81680   0.24130   0.00000  Uiso   1.00
O188   O     0.44540   0.31680   0.74130   0.00000  Uiso   1.00
O189   O     0.94540   0.18320   0.25870   0.00000  Uiso   1.00
O190   O     0.94540   0.68320   0.75870   0.00000  Uiso   1.00
O191   O     0.44540   0.18320   0.75870   0.00000  Uiso   1.00
O192   O     0.44540   0.68320   0.25870   0.00000  Uiso   1.00
Mn193  Mn    0.20777   0.20777   0.00000   0.00000  Uiso   1.00
Cl194  Cl    0.14539   0.14539   0.00000   0.00000  Uiso   1.00
Mn195  Mn    0.20777   0.70777   0.50000   0.00000  Uiso   1.00
Cl196  Cl    0.14539   0.64539   0.50000   0.00000  Uiso   1.00
Mn197  Mn    0.70777   0.20777   0.50000   0.00000  Uiso   1.00
Cl198  Cl    0.64539   0.14539   0.50000   0.00000  Uiso   1.00
Mn199  Mn    0.70777   0.70777   0.00000   0.00000  Uiso   1.00
Cl200  Cl    0.64539   0.64539   0.00000   0.00000  Uiso   1.00
Mn201  Mn    0.79223   0.79223   0.00000   0.00000  Uiso   1.00
Cl202  Cl    0.85461   0.85461   0.00000   0.00000  Uiso   1.00
Mn203  Mn    0.79223   0.29223   0.50000   0.00000  Uiso   1.00
Cl204  Cl    0.85461   0.35461   0.50000   0.00000  Uiso   1.00
Mn205  Mn    0.29223   0.79223   0.50000   0.00000  Uiso   1.00
Cl206  Cl    0.35461   0.85461   0.50000   0.00000  Uiso   1.00
Mn207  Mn    0.29223   0.29223   0.00000   0.00000  Uiso   1.00
Cl208  Cl    0.35461   0.35461   0.00000   0.00000  Uiso   1.00
Mn209  Mn    0.79223   0.20777   0.00000   0.00000  Uiso   1.00
Cl210  Cl    0.85461   0.14539   0.00000   0.00000  Uiso   1.00
Mn211  Mn    0.79223   0.70777   0.50000   0.00000  Uiso   1.00
Cl212  Cl    0.85461   0.64539   0.50000   0.00000  Uiso   1.00
Mn213  Mn    0.29223   0.20777   0.50000   0.00000  Uiso   1.00
Cl214  Cl    0.35461   0.14539   0.50000   0.00000  Uiso   1.00
Mn215  Mn    0.29223   0.70777   0.00000   0.00000  Uiso   1.00
Cl216  Cl    0.35461   0.64539   0.00000   0.00000  Uiso   1.00
Mn217  Mn    0.20777   0.79223   0.00000   0.00000  Uiso   1.00
Cl218  Cl    0.14539   0.85461   0.00000   0.00000  Uiso   1.00
Mn219  Mn    0.20777   0.29223   0.50000   0.00000  Uiso   1.00
Cl220  Cl    0.14539   0.35461   0.50000   0.00000  Uiso   1.00
Mn221  Mn    0.70777   0.79223   0.50000   0.00000  Uiso   1.00
Cl222  Cl    0.64539   0.85461   0.50000   0.00000  Uiso   1.00
Mn223  Mn    0.70777   0.29223   0.00000   0.00000  Uiso   1.00
Cl224  Cl    0.64539   0.35461   0.00000   0.00000  Uiso   1.00
Mn225  Mn    0.00000   0.20777   0.20777   0.00000  Uiso   1.00
Cl226  Cl    0.00000   0.14539   0.14539   0.00000  Uiso   1.00
Mn227  Mn    0.00000   0.70777   0.70777   0.00000  Uiso   1.00
Cl228  Cl    0.00000   0.64539   0.64539   0.00000  Uiso   1.00
Mn229  Mn    0.50000   0.20777   0.70777   0.00000  Uiso   1.00
Cl230  Cl    0.50000   0.14539   0.64539   0.00000  Uiso   1.00
Mn231  Mn    0.50000   0.70777   0.20777   0.00000  Uiso   1.00
Cl232  Cl    0.50000   0.64539   0.14539   0.00000  Uiso   1.00
Mn233  Mn    0.00000   0.79223   0.79223   0.00000  Uiso   1.00
Cl234  Cl    0.00000   0.85461   0.85461   0.00000  Uiso   1.00
Mn235  Mn    0.00000   0.29223   0.29223   0.00000  Uiso   1.00
Cl236  Cl    0.00000   0.35461   0.35461   0.00000  Uiso   1.00
Mn237  Mn    0.50000   0.79223   0.29223   0.00000  Uiso   1.00
Cl238  Cl    0.50000   0.85461   0.35461   0.00000  Uiso   1.00
Mn239  Mn    0.50000   0.29223   0.79223   0.00000  Uiso   1.00
Cl240  Cl    0.50000   0.35461   0.85461   0.00000  Uiso   1.00
Mn241  Mn    0.00000   0.79223   0.20777   0.00000  Uiso   1.00
Cl242  Cl    0.00000   0.85461   0.14539   0.00000  Uiso   1.00
Mn243  Mn    0.00000   0.29223   0.70777   0.00000  Uiso   1.00
Cl244  Cl    0.00000   0.35461   0.64539   0.00000  Uiso   1.00
Mn245  Mn    0.50000   0.79223   0.70777   0.00000  Uiso   1.00
Cl246  Cl    0.50000   0.85461   0.64539   0.00000  Uiso   1.00
Mn247  Mn    0.50000   0.29223   0.20777   0.00000  Uiso   1.00
Cl248  Cl    0.50000   0.35461   0.14539   0.00000  Uiso   1.00
Mn249  Mn    0.00000   0.20777   0.79223   0.00000  Uiso   1.00
Cl250  Cl    0.00000   0.14539   0.85461   0.00000  Uiso   1.00
Mn251  Mn    0.00000   0.70777   0.29223   0.00000  Uiso   1.00
Cl252  Cl    0.00000   0.64539   0.35461   0.00000  Uiso   1.00
Mn253  Mn    0.50000   0.20777   0.29223   0.00000  Uiso   1.00
Cl254  Cl    0.50000   0.14539   0.35461   0.00000  Uiso   1.00
Mn255  Mn    0.50000   0.70777   0.79223   0.00000  Uiso   1.00
Cl256  Cl    0.50000   0.64539   0.85461   0.00000  Uiso   1.00
Mn257  Mn    0.20777   0.00000   0.20777   0.00000  Uiso   1.00
Cl258  Cl    0.14539   0.00000   0.14539   0.00000  Uiso   1.00
Mn259  Mn    0.20777   0.50000   0.70777   0.00000  Uiso   1.00
Cl260  Cl    0.14539   0.50000   0.64539   0.00000  Uiso   1.00
Mn261  Mn    0.70777   0.00000   0.70777   0.00000  Uiso   1.00
Cl262  Cl    0.64539   0.00000   0.64539   0.00000  Uiso   1.00
Mn263  Mn    0.70777   0.50000   0.20777   0.00000  Uiso   1.00
Cl264  Cl    0.64539   0.50000   0.14539   0.00000  Uiso   1.00
Mn265  Mn    0.79223   0.00000   0.79223   0.00000  Uiso   1.00
Cl266  Cl    0.85461   0.00000   0.85461   0.00000  Uiso   1.00
Mn267  Mn    0.79223   0.50000   0.29223   0.00000  Uiso   1.00
Cl268  Cl    0.85461   0.50000   0.35461   0.00000  Uiso   1.00
Mn269  Mn    0.29223   0.00000   0.29223   0.00000  Uiso   1.00
Cl270  Cl    0.35461   0.00000   0.35461   0.00000  Uiso   1.00
Mn271  Mn    0.29223   0.50000   0.79223   0.00000  Uiso   1.00
Cl272  Cl    0.35461   0.50000   0.85461   0.00000  Uiso   1.00
Mn273  Mn    0.20777   0.00000   0.79223   0.00000  Uiso   1.00
Cl274  Cl    0.14539   0.00000   0.85461   0.00000  Uiso   1.00
Mn275  Mn    0.20777   0.50000   0.29223   0.00000  Uiso   1.00
Cl276  Cl    0.14539   0.50000   0.35461   0.00000  Uiso   1.00
Mn277  Mn    0.70777   0.00000   0.29223   0.00000  Uiso   1.00
Cl278  Cl    0.64539   0.00000   0.35461   0.00000  Uiso   1.00
Mn279  Mn    0.70777   0.50000   0.79223   0.00000  Uiso   1.00
Cl280  Cl    0.64539   0.50000   0.85461   0.00000  Uiso   1.00
Mn281  Mn    0.79223   0.00000   0.20777   0.00000  Uiso   1.00
Cl282  Cl    0.85461   0.00000   0.14539   0.00000  Uiso   1.00
Mn283  Mn    0.79223   0.50000   0.70777   0.00000  Uiso   1.00
Cl284  Cl    0.85461   0.50000   0.64539   0.00000  Uiso   1.00
Mn285  Mn    0.29223   0.00000   0.70777   0.00000  Uiso   1.00
Cl286  Cl    0.35461   0.00000   0.64539   0.00000  Uiso   1.00
Mn287  Mn    0.29223   0.50000   0.20777   0.00000  Uiso   1.00
Cl288  Cl    0.35461   0.50000   0.14539   0.00000  Uiso   1.00
C289   C     0.32210   0.17790   0.88500   0.00000  Uiso   1.00
C290   C     0.29750   0.20250   0.92980   0.00000  Uiso   1.00
C291   C     0.32210   0.67790   0.38500   0.00000  Uiso   1.00
C292   C     0.29750   0.70250   0.42980   0.00000  Uiso   1.00
C293   C     0.67790   0.82210   0.88500   0.00000  Uiso   1.00
C294   C     0.70250   0.79750   0.92980   0.00000  Uiso   1.00
C295   C     0.67790   0.32210   0.38500   0.00000  Uiso   1.00
C296   C     0.70250   0.29750   0.42980   0.00000  Uiso   1.00
C297   C     0.17790   0.32210   0.88500   0.00000  Uiso   1.00
C298   C     0.20250   0.29750   0.92980   0.00000  Uiso   1.00
C299   C     0.67790   0.17790   0.11500   0.00000  Uiso   1.00
C300   C     0.70250   0.20250   0.07020   0.00000  Uiso   1.00
C301   C     0.67790   0.67790   0.61500   0.00000  Uiso   1.00
C302   C     0.70250   0.70250   0.57020   0.00000  Uiso   1.00
C303   C     0.17790   0.17790   0.61500   0.00000  Uiso   1.00
C304   C     0.20250   0.20250   0.57020   0.00000  Uiso   1.00
C305   C     0.32210   0.82210   0.11500   0.00000  Uiso   1.00
C306   C     0.29750   0.79750   0.07020   0.00000  Uiso   1.00
C307   C     0.32210   0.32210   0.61500   0.00000  Uiso   1.00
C308   C     0.29750   0.29750   0.57020   0.00000  Uiso   1.00
C309   C     0.88500   0.32210   0.17790   0.00000  Uiso   1.00
C310   C     0.92980   0.29750   0.20250   0.00000  Uiso   1.00
C311   C     0.38500   0.32210   0.67790   0.00000  Uiso   1.00
C312   C     0.42980   0.29750   0.70250   0.00000  Uiso   1.00
C313   C     0.88500   0.67790   0.82210   0.00000  Uiso   1.00
C314   C     0.92980   0.70250   0.79750   0.00000  Uiso   1.00
C315   C     0.88500   0.17790   0.32210   0.00000  Uiso   1.00
C316   C     0.92980   0.20250   0.29750   0.00000  Uiso   1.00
C317   C     0.38500   0.67790   0.32210   0.00000  Uiso   1.00
C318   C     0.42980   0.70250   0.29750   0.00000  Uiso   1.00
C319   C     0.11500   0.67790   0.17790   0.00000  Uiso   1.00
C320   C     0.07020   0.70250   0.20250   0.00000  Uiso   1.00
C321   C     0.61500   0.67790   0.67790   0.00000  Uiso   1.00
C322   C     0.57020   0.70250   0.70250   0.00000  Uiso   1.00
C323   C     0.61500   0.17790   0.17790   0.00000  Uiso   1.00
C324   C     0.57020   0.20250   0.20250   0.00000  Uiso   1.00
C325   C     0.11500   0.32210   0.82210   0.00000  Uiso   1.00
C326   C     0.07020   0.29750   0.79750   0.00000  Uiso   1.00
C327   C     0.61500   0.32210   0.32210   0.00000  Uiso   1.00
C328   C     0.57020   0.29750   0.29750   0.00000  Uiso   1.00
C329   C     0.17790   0.88500   0.32210   0.00000  Uiso   1.00
C330   C     0.20250   0.92980   0.29750   0.00000  Uiso   1.00
C331   C     0.17790   0.38500   0.82210   0.00000  Uiso   1.00
C332   C     0.20250   0.42980   0.79750   0.00000  Uiso   1.00
C333   C     0.82210   0.88500   0.67790   0.00000  Uiso   1.00
C334   C     0.79750   0.92980   0.70250   0.00000  Uiso   1.00
C335   C     0.82210   0.38500   0.17790   0.00000  Uiso   1.00
C336   C     0.79750   0.42980   0.20250   0.00000  Uiso   1.00
C337   C     0.32210   0.88500   0.17790   0.00000  Uiso   1.00
C338   C     0.29750   0.92980   0.20250   0.00000  Uiso   1.00
C339   C     0.17790   0.11500   0.67790   0.00000  Uiso   1.00
C340   C     0.20250   0.07020   0.70250   0.00000  Uiso   1.00
C341   C     0.17790   0.61500   0.17790   0.00000  Uiso   1.00
C342   C     0.20250   0.57020   0.20250   0.00000  Uiso   1.00
C343   C     0.82210   0.11500   0.32210   0.00000  Uiso   1.00
C344   C     0.79750   0.07020   0.29750   0.00000  Uiso   1.00
C345   C     0.82210   0.61500   0.82210   0.00000  Uiso   1.00
C346   C     0.79750   0.57020   0.79750   0.00000  Uiso   1.00
C347   C     0.32210   0.61500   0.32210   0.00000  Uiso   1.00
C348   C     0.29750   0.57020   0.29750   0.00000  Uiso   1.00
C349   C     0.17790   0.32210   0.11500   0.00000  Uiso   1.00
C350   C     0.20250   0.29750   0.07020   0.00000  Uiso   1.00
C351   C     0.17790   0.82210   0.61500   0.00000  Uiso   1.00
C352   C     0.20250   0.79750   0.57020   0.00000  Uiso   1.00
C353   C     0.82210   0.67790   0.11500   0.00000  Uiso   1.00
C354   C     0.79750   0.70250   0.07020   0.00000  Uiso   1.00
C355   C     0.82210   0.17790   0.61500   0.00000  Uiso   1.00
C356   C     0.79750   0.20250   0.57020   0.00000  Uiso   1.00
C357   C     0.32210   0.17790   0.11500   0.00000  Uiso   1.00
C358   C     0.29750   0.20250   0.07020   0.00000  Uiso   1.00
C359   C     0.17790   0.67790   0.88500   0.00000  Uiso   1.00
C360   C     0.20250   0.70250   0.92980   0.00000  Uiso   1.00
C361   C     0.17790   0.17790   0.38500   0.00000  Uiso   1.00
C362   C     0.20250   0.20250   0.42980   0.00000  Uiso   1.00
C363   C     0.82210   0.32210   0.88500   0.00000  Uiso   1.00
C364   C     0.79750   0.29750   0.92980   0.00000  Uiso   1.00
C365   C     0.82210   0.82210   0.38500   0.00000  Uiso   1.00
C366   C     0.79750   0.79750   0.42980   0.00000  Uiso   1.00
C367   C     0.32210   0.32210   0.38500   0.00000  Uiso   1.00
C368   C     0.29750   0.29750   0.42980   0.00000  Uiso   1.00
C369   C     0.32210   0.88500   0.82210   0.00000  Uiso   1.00
C370   C     0.29750   0.92980   0.79750   0.00000  Uiso   1.00
C371   C     0.32210   0.38500   0.32210   0.00000  Uiso   1.00
C372   C     0.29750   0.42980   0.29750   0.00000  Uiso   1.00
C373   C     0.67790   0.88500   0.17790   0.00000  Uiso   1.00
C374   C     0.70250   0.92980   0.20250   0.00000  Uiso   1.00
C375   C     0.67790   0.38500   0.67790   0.00000  Uiso   1.00
C376   C     0.70250   0.42980   0.70250   0.00000  Uiso   1.00
C377   C     0.17790   0.38500   0.17790   0.00000  Uiso   1.00
C378   C     0.20250   0.42980   0.20250   0.00000  Uiso   1.00
C379   C     0.67790   0.11500   0.82210   0.00000  Uiso   1.00
C380   C     0.70250   0.07020   0.79750   0.00000  Uiso   1.00
C381   C     0.67790   0.61500   0.32210   0.00000  Uiso   1.00
C382   C     0.70250   0.57020   0.29750   0.00000  Uiso   1.00
C383   C     0.17790   0.11500   0.32210   0.00000  Uiso   1.00
C384   C     0.20250   0.07020   0.29750   0.00000  Uiso   1.00
C385   C     0.32210   0.11500   0.17790   0.00000  Uiso   1.00
C386   C     0.29750   0.07020   0.20250   0.00000  Uiso   1.00
C387   C     0.32210   0.61500   0.67790   0.00000  Uiso   1.00
C388   C     0.29750   0.57020   0.70250   0.00000  Uiso   1.00
C389   C     0.88500   0.17790   0.67790   0.00000  Uiso   1.00
C390   C     0.92980   0.20250   0.70250   0.00000  Uiso   1.00
C391   C     0.38500   0.17790   0.17790   0.00000  Uiso   1.00
C392   C     0.42980   0.20250   0.20250   0.00000  Uiso   1.00
C393   C     0.88500   0.82210   0.32210   0.00000  Uiso   1.00
C394   C     0.92980   0.79750   0.29750   0.00000  Uiso   1.00
C395   C     0.38500   0.82210   0.82210   0.00000  Uiso   1.00
C396   C     0.42980   0.79750   0.79750   0.00000  Uiso   1.00
C397   C     0.38500   0.32210   0.32210   0.00000  Uiso   1.00
C398   C     0.42980   0.29750   0.29750   0.00000  Uiso   1.00
C399   C     0.11500   0.17790   0.32210   0.00000  Uiso   1.00
C400   C     0.07020   0.20250   0.29750   0.00000  Uiso   1.00
C401   C     0.61500   0.17790   0.82210   0.00000  Uiso   1.00
C402   C     0.57020   0.20250   0.79750   0.00000  Uiso   1.00
C403   C     0.11500   0.82210   0.67790   0.00000  Uiso   1.00
C404   C     0.07020   0.79750   0.70250   0.00000  Uiso   1.00
C405   C     0.11500   0.32210   0.17790   0.00000  Uiso   1.00
C406   C     0.07020   0.29750   0.20250   0.00000  Uiso   1.00
C407   C     0.61500   0.82210   0.17790   0.00000  Uiso   1.00
C408   C     0.57020   0.79750   0.20250   0.00000  Uiso   1.00
C409   C     0.67790   0.82210   0.11500   0.00000  Uiso   1.00
C410   C     0.70250   0.79750   0.07020   0.00000  Uiso   1.00
C411   C     0.67790   0.32210   0.61500   0.00000  Uiso   1.00
C412   C     0.70250   0.29750   0.57020   0.00000  Uiso   1.00
C413   C     0.32210   0.67790   0.61500   0.00000  Uiso   1.00
C414   C     0.29750   0.70250   0.57020   0.00000  Uiso   1.00
C415   C     0.32210   0.82210   0.88500   0.00000  Uiso   1.00
C416   C     0.29750   0.79750   0.92980   0.00000  Uiso   1.00
C417   C     0.67790   0.17790   0.88500   0.00000  Uiso   1.00
C418   C     0.70250   0.20250   0.92980   0.00000  Uiso   1.00
C419   C     0.67790   0.67790   0.38500   0.00000  Uiso   1.00
C420   C     0.70250   0.70250   0.42980   0.00000  Uiso   1.00
C421   C     0.11500   0.67790   0.82210   0.00000  Uiso   1.00
C422   C     0.07020   0.70250   0.79750   0.00000  Uiso   1.00
C423   C     0.61500   0.67790   0.32210   0.00000  Uiso   1.00
C424   C     0.57020   0.70250   0.29750   0.00000  Uiso   1.00
C425   C     0.61500   0.32210   0.67790   0.00000  Uiso   1.00
C426   C     0.57020   0.29750   0.70250   0.00000  Uiso   1.00
C427   C     0.88500   0.32210   0.82210   0.00000  Uiso   1.00
C428   C     0.92980   0.29750   0.79750   0.00000  Uiso   1.00
C429   C     0.88500   0.67790   0.17790   0.00000  Uiso   1.00
C430   C     0.92980   0.70250   0.20250   0.00000  Uiso   1.00
C431   C     0.38500   0.67790   0.67790   0.00000  Uiso   1.00
C432   C     0.42980   0.70250   0.70250   0.00000  Uiso   1.00
C433   C     0.82210   0.11500   0.67790   0.00000  Uiso   1.00
C434   C     0.79750   0.07020   0.70250   0.00000  Uiso   1.00
C435   C     0.82210   0.61500   0.17790   0.00000  Uiso   1.00
C436   C     0.79750   0.57020   0.20250   0.00000  Uiso   1.00
C437   C     0.17790   0.61500   0.82210   0.00000  Uiso   1.00
C438   C     0.20250   0.57020   0.79750   0.00000  Uiso   1.00
C439   C     0.82210   0.88500   0.32210   0.00000  Uiso   1.00
C440   C     0.79750   0.92980   0.29750   0.00000  Uiso   1.00
C441   C     0.82210   0.38500   0.82210   0.00000  Uiso   1.00
C442   C     0.79750   0.42980   0.79750   0.00000  Uiso   1.00
C443   C     0.17790   0.88500   0.67790   0.00000  Uiso   1.00
C444   C     0.20250   0.92980   0.70250   0.00000  Uiso   1.00
C445   C     0.82210   0.67790   0.88500   0.00000  Uiso   1.00
C446   C     0.79750   0.70250   0.92980   0.00000  Uiso   1.00
C447   C     0.82210   0.17790   0.38500   0.00000  Uiso   1.00
C448   C     0.79750   0.20250   0.42980   0.00000  Uiso   1.00
C449   C     0.17790   0.82210   0.38500   0.00000  Uiso   1.00
C450   C     0.20250   0.79750   0.42980   0.00000  Uiso   1.00
C451   C     0.82210   0.32210   0.11500   0.00000  Uiso   1.00
C452   C     0.79750   0.29750   0.07020   0.00000  Uiso   1.00
C453   C     0.82210   0.82210   0.61500   0.00000  Uiso   1.00
C454   C     0.79750   0.79750   0.57020   0.00000  Uiso   1.00
C455   C     0.17790   0.67790   0.11500   0.00000  Uiso   1.00
C456   C     0.20250   0.70250   0.07020   0.00000  Uiso   1.00
C457   C     0.67790   0.11500   0.17790   0.00000  Uiso   1.00
C458   C     0.70250   0.07020   0.20250   0.00000  Uiso   1.00
C459   C     0.67790   0.61500   0.67790   0.00000  Uiso   1.00
C460   C     0.70250   0.57020   0.70250   0.00000  Uiso   1.00
C461   C     0.32210   0.11500   0.82210   0.00000  Uiso   1.00
C462   C     0.29750   0.07020   0.79750   0.00000  Uiso   1.00
C463   C     0.32210   0.38500   0.67790   0.00000  Uiso   1.00
C464   C     0.29750   0.42980   0.70250   0.00000  Uiso   1.00
C465   C     0.67790   0.88500   0.82210   0.00000  Uiso   1.00
C466   C     0.70250   0.92980   0.79750   0.00000  Uiso   1.00
C467   C     0.67790   0.38500   0.32210   0.00000  Uiso   1.00
C468   C     0.70250   0.42980   0.29750   0.00000  Uiso   1.00
C469   C     0.11500   0.82210   0.32210   0.00000  Uiso   1.00
C470   C     0.07020   0.79750   0.29750   0.00000  Uiso   1.00
C471   C     0.61500   0.82210   0.82210   0.00000  Uiso   1.00
C472   C     0.57020   0.79750   0.79750   0.00000  Uiso   1.00
C473   C     0.11500   0.17790   0.67790   0.00000  Uiso   1.00
C474   C     0.07020   0.20250   0.70250   0.00000  Uiso   1.00
C475   C     0.88500   0.82210   0.67790   0.00000  Uiso   1.00
C476   C     0.92980   0.79750   0.70250   0.00000  Uiso   1.00
C477   C     0.38500   0.82210   0.17790   0.00000  Uiso   1.00
C478   C     0.42980   0.79750   0.20250   0.00000  Uiso   1.00
C479   C     0.38500   0.17790   0.82210   0.00000  Uiso   1.00
C480   C     0.42980   0.20250   0.79750   0.00000  Uiso   1.00
C481   C     0.30120   0.13630   0.86370   0.00000  Uiso   1.00
H482   H     0.27180   0.12170   0.87830   0.00000  Uiso   1.00
C483   C     0.30120   0.63630   0.36370   0.00000  Uiso   1.00
H484   H     0.27180   0.62170   0.37830   0.00000  Uiso   1.00
C485   C     0.80120   0.13630   0.36370   0.00000  Uiso   1.00
H486   H     0.77180   0.12170   0.37830   0.00000  Uiso   1.00
C487   C     0.80120   0.63630   0.86370   0.00000  Uiso   1.00
H488   H     0.77180   0.62170   0.87830   0.00000  Uiso   1.00
C489   C     0.69880   0.86370   0.86370   0.00000  Uiso   1.00
H490   H     0.72820   0.87830   0.87830   0.00000  Uiso   1.00
C491   C     0.69880   0.36370   0.36370   0.00000  Uiso   1.00
H492   H     0.72820   0.37830   0.37830   0.00000  Uiso   1.00
C493   C     0.19880   0.86370   0.36370   0.00000  Uiso   1.00
H494   H     0.22820   0.87830   0.37830   0.00000  Uiso   1.00
C495   C     0.19880   0.36370   0.86370   0.00000  Uiso   1.00
H496   H     0.22820   0.37830   0.87830   0.00000  Uiso   1.00
C497   C     0.69880   0.13630   0.13630   0.00000  Uiso   1.00
H498   H     0.72820   0.12170   0.12170   0.00000  Uiso   1.00
C499   C     0.69880   0.63630   0.63630   0.00000  Uiso   1.00
H500   H     0.72820   0.62170   0.62170   0.00000  Uiso   1.00
C501   C     0.19880   0.13630   0.63630   0.00000  Uiso   1.00
H502   H     0.22820   0.12170   0.62170   0.00000  Uiso   1.00
C503   C     0.19880   0.63630   0.13630   0.00000  Uiso   1.00
H504   H     0.22820   0.62170   0.12170   0.00000  Uiso   1.00
C505   C     0.30120   0.86370   0.13630   0.00000  Uiso   1.00
H506   H     0.27180   0.87830   0.12170   0.00000  Uiso   1.00
C507   C     0.30120   0.36370   0.63630   0.00000  Uiso   1.00
H508   H     0.27180   0.37830   0.62170   0.00000  Uiso   1.00
C509   C     0.80120   0.86370   0.63630   0.00000  Uiso   1.00
H510   H     0.77180   0.87830   0.62170   0.00000  Uiso   1.00
C511   C     0.80120   0.36370   0.13630   0.00000  Uiso   1.00
H512   H     0.77180   0.37830   0.12170   0.00000  Uiso   1.00
C513   C     0.86370   0.30120   0.13630   0.00000  Uiso   1.00
H514   H     0.87830   0.27180   0.12170   0.00000  Uiso   1.00
C515   C     0.86370   0.80120   0.63630   0.00000  Uiso   1.00
H516   H     0.87830   0.77180   0.62170   0.00000  Uiso   1.00
C517   C     0.36370   0.30120   0.63630   0.00000  Uiso   1.00
H518   H     0.37830   0.27180   0.62170   0.00000  Uiso   1.00
C519   C     0.36370   0.80120   0.13630   0.00000  Uiso   1.00
H520   H     0.37830   0.77180   0.12170   0.00000  Uiso   1.00
C521   C     0.86370   0.69880   0.86370   0.00000  Uiso   1.00
H522   H     0.87830   0.72820   0.87830   0.00000  Uiso   1.00
C523   C     0.86370   0.19880   0.36370   0.00000  Uiso   1.00
H524   H     0.87830   0.22820   0.37830   0.00000  Uiso   1.00
C525   C     0.36370   0.69880   0.36370   0.00000  Uiso   1.00
H526   H     0.37830   0.72820   0.37830   0.00000  Uiso   1.00
C527   C     0.36370   0.19880   0.86370   0.00000  Uiso   1.00
H528   H     0.37830   0.22820   0.87830   0.00000  Uiso   1.00
C529   C     0.13630   0.69880   0.13630   0.00000  Uiso   1.00
H530   H     0.12170   0.72820   0.12170   0.00000  Uiso   1.00
C531   C     0.13630   0.19880   0.63630   0.00000  Uiso   1.00
H532   H     0.12170   0.22820   0.62170   0.00000  Uiso   1.00
C533   C     0.63630   0.69880   0.63630   0.00000  Uiso   1.00
H534   H     0.62170   0.72820   0.62170   0.00000  Uiso   1.00
C535   C     0.63630   0.19880   0.13630   0.00000  Uiso   1.00
H536   H     0.62170   0.22820   0.12170   0.00000  Uiso   1.00
C537   C     0.13630   0.30120   0.86370   0.00000  Uiso   1.00
H538   H     0.12170   0.27180   0.87830   0.00000  Uiso   1.00
C539   C     0.13630   0.80120   0.36370   0.00000  Uiso   1.00
H540   H     0.12170   0.77180   0.37830   0.00000  Uiso   1.00
C541   C     0.63630   0.30120   0.36370   0.00000  Uiso   1.00
H542   H     0.62170   0.27180   0.37830   0.00000  Uiso   1.00
C543   C     0.63630   0.80120   0.86370   0.00000  Uiso   1.00
H544   H     0.62170   0.77180   0.87830   0.00000  Uiso   1.00
C545   C     0.13630   0.86370   0.30120   0.00000  Uiso   1.00
H546   H     0.12170   0.87830   0.27180   0.00000  Uiso   1.00
C547   C     0.13630   0.36370   0.80120   0.00000  Uiso   1.00
H548   H     0.12170   0.37830   0.77180   0.00000  Uiso   1.00
C549   C     0.63630   0.86370   0.80120   0.00000  Uiso   1.00
H550   H     0.62170   0.87830   0.77180   0.00000  Uiso   1.00
C551   C     0.63630   0.36370   0.30120   0.00000  Uiso   1.00
H552   H     0.62170   0.37830   0.27180   0.00000  Uiso   1.00
C553   C     0.86370   0.86370   0.69880   0.00000  Uiso   1.00
H554   H     0.87830   0.87830   0.72820   0.00000  Uiso   1.00
C555   C     0.86370   0.36370   0.19880   0.00000  Uiso   1.00
H556   H     0.87830   0.37830   0.22820   0.00000  Uiso   1.00
C557   C     0.36370   0.86370   0.19880   0.00000  Uiso   1.00
H558   H     0.37830   0.87830   0.22820   0.00000  Uiso   1.00
C559   C     0.36370   0.36370   0.69880   0.00000  Uiso   1.00
H560   H     0.37830   0.37830   0.72820   0.00000  Uiso   1.00
C561   C     0.13630   0.13630   0.69880   0.00000  Uiso   1.00
H562   H     0.12170   0.12170   0.72820   0.00000  Uiso   1.00
C563   C     0.13630   0.63630   0.19880   0.00000  Uiso   1.00
H564   H     0.12170   0.62170   0.22820   0.00000  Uiso   1.00
C565   C     0.63630   0.13630   0.19880   0.00000  Uiso   1.00
H566   H     0.62170   0.12170   0.22820   0.00000  Uiso   1.00
C567   C     0.63630   0.63630   0.69880   0.00000  Uiso   1.00
H568   H     0.62170   0.62170   0.72820   0.00000  Uiso   1.00
C569   C     0.86370   0.13630   0.30120   0.00000  Uiso   1.00
H570   H     0.87830   0.12170   0.27180   0.00000  Uiso   1.00
C571   C     0.86370   0.63630   0.80120   0.00000  Uiso   1.00
H572   H     0.87830   0.62170   0.77180   0.00000  Uiso   1.00
C573   C     0.36370   0.13630   0.80120   0.00000  Uiso   1.00
H574   H     0.37830   0.12170   0.77180   0.00000  Uiso   1.00
C575   C     0.36370   0.63630   0.30120   0.00000  Uiso   1.00
H576   H     0.37830   0.62170   0.27180   0.00000  Uiso   1.00
C577   C     0.13630   0.30120   0.13630   0.00000  Uiso   1.00
H578   H     0.12170   0.27180   0.12170   0.00000  Uiso   1.00
C579   C     0.13630   0.80120   0.63630   0.00000  Uiso   1.00
H580   H     0.12170   0.77180   0.62170   0.00000  Uiso   1.00
C581   C     0.63630   0.30120   0.63630   0.00000  Uiso   1.00
H582   H     0.62170   0.27180   0.62170   0.00000  Uiso   1.00
C583   C     0.63630   0.80120   0.13630   0.00000  Uiso   1.00
H584   H     0.62170   0.77180   0.12170   0.00000  Uiso   1.00
C585   C     0.86370   0.69880   0.13630   0.00000  Uiso   1.00
H586   H     0.87830   0.72820   0.12170   0.00000  Uiso   1.00
C587   C     0.86370   0.19880   0.63630   0.00000  Uiso   1.00
H588   H     0.87830   0.22820   0.62170   0.00000  Uiso   1.00
C589   C     0.36370   0.69880   0.63630   0.00000  Uiso   1.00
H590   H     0.37830   0.72820   0.62170   0.00000  Uiso   1.00
C591   C     0.36370   0.19880   0.13630   0.00000  Uiso   1.00
H592   H     0.37830   0.22820   0.12170   0.00000  Uiso   1.00
C593   C     0.13630   0.69880   0.86370   0.00000  Uiso   1.00
H594   H     0.12170   0.72820   0.87830   0.00000  Uiso   1.00
C595   C     0.13630   0.19880   0.36370   0.00000  Uiso   1.00
H596   H     0.12170   0.22820   0.37830   0.00000  Uiso   1.00
C597   C     0.63630   0.69880   0.36370   0.00000  Uiso   1.00
H598   H     0.62170   0.72820   0.37830   0.00000  Uiso   1.00
C599   C     0.63630   0.19880   0.86370   0.00000  Uiso   1.00
H600   H     0.62170   0.22820   0.87830   0.00000  Uiso   1.00
C601   C     0.86370   0.30120   0.86370   0.00000  Uiso   1.00
H602   H     0.87830   0.27180   0.87830   0.00000  Uiso   1.00
C603   C     0.86370   0.80120   0.36370   0.00000  Uiso   1.00
H604   H     0.87830   0.77180   0.37830   0.00000  Uiso   1.00
C605   C     0.36370   0.30120   0.36370   0.00000  Uiso   1.00
H606   H     0.37830   0.27180   0.37830   0.00000  Uiso   1.00
C607   C     0.36370   0.80120   0.86370   0.00000  Uiso   1.00
H608   H     0.37830   0.77180   0.87830   0.00000  Uiso   1.00
C609   C     0.30120   0.86370   0.86370   0.00000  Uiso   1.00
H610   H     0.27180   0.87830   0.87830   0.00000  Uiso   1.00
C611   C     0.30120   0.36370   0.36370   0.00000  Uiso   1.00
H612   H     0.27180   0.37830   0.37830   0.00000  Uiso   1.00
C613   C     0.80120   0.86370   0.36370   0.00000  Uiso   1.00
H614   H     0.77180   0.87830   0.37830   0.00000  Uiso   1.00
C615   C     0.80120   0.36370   0.86370   0.00000  Uiso   1.00
H616   H     0.77180   0.37830   0.87830   0.00000  Uiso   1.00
C617   C     0.69880   0.86370   0.13630   0.00000  Uiso   1.00
H618   H     0.72820   0.87830   0.12170   0.00000  Uiso   1.00
C619   C     0.69880   0.36370   0.63630   0.00000  Uiso   1.00
H620   H     0.72820   0.37830   0.62170   0.00000  Uiso   1.00
C621   C     0.19880   0.86370   0.63630   0.00000  Uiso   1.00
H622   H     0.22820   0.87830   0.62170   0.00000  Uiso   1.00
C623   C     0.19880   0.36370   0.13630   0.00000  Uiso   1.00
H624   H     0.22820   0.37830   0.12170   0.00000  Uiso   1.00
C625   C     0.69880   0.13630   0.86370   0.00000  Uiso   1.00
H626   H     0.72820   0.12170   0.87830   0.00000  Uiso   1.00
C627   C     0.69880   0.63630   0.36370   0.00000  Uiso   1.00
H628   H     0.72820   0.62170   0.37830   0.00000  Uiso   1.00
C629   C     0.19880   0.13630   0.36370   0.00000  Uiso   1.00
H630   H     0.22820   0.12170   0.37830   0.00000  Uiso   1.00
C631   C     0.19880   0.63630   0.86370   0.00000  Uiso   1.00
H632   H     0.22820   0.62170   0.87830   0.00000  Uiso   1.00
C633   C     0.30120   0.13630   0.13630   0.00000  Uiso   1.00
H634   H     0.27180   0.12170   0.12170   0.00000  Uiso   1.00
C635   C     0.30120   0.63630   0.63630   0.00000  Uiso   1.00
H636   H     0.27180   0.62170   0.62170   0.00000  Uiso   1.00
C637   C     0.80120   0.13630   0.63630   0.00000  Uiso   1.00
H638   H     0.77180   0.12170   0.62170   0.00000  Uiso   1.00
C639   C     0.80120   0.63630   0.13630   0.00000  Uiso   1.00
H640   H     0.77180   0.62170   0.12170   0.00000  Uiso   1.00
C641   C     0.86370   0.13630   0.69880   0.00000  Uiso   1.00
H642   H     0.87830   0.12170   0.72820   0.00000  Uiso   1.00
C643   C     0.86370   0.63630   0.19880   0.00000  Uiso   1.00
H644   H     0.87830   0.62170   0.22820   0.00000  Uiso   1.00
C645   C     0.36370   0.13630   0.19880   0.00000  Uiso   1.00
H646   H     0.37830   0.12170   0.22820   0.00000  Uiso   1.00
C647   C     0.36370   0.63630   0.69880   0.00000  Uiso   1.00
H648   H     0.37830   0.62170   0.72820   0.00000  Uiso   1.00
C649   C     0.86370   0.86370   0.30120   0.00000  Uiso   1.00
H650   H     0.87830   0.87830   0.27180   0.00000  Uiso   1.00
C651   C     0.86370   0.36370   0.80120   0.00000  Uiso   1.00
H652   H     0.87830   0.37830   0.77180   0.00000  Uiso   1.00
C653   C     0.36370   0.86370   0.80120   0.00000  Uiso   1.00
H654   H     0.37830   0.87830   0.77180   0.00000  Uiso   1.00
C655   C     0.36370   0.36370   0.30120   0.00000  Uiso   1.00
H656   H     0.37830   0.37830   0.27180   0.00000  Uiso   1.00
C657   C     0.13630   0.13630   0.30120   0.00000  Uiso   1.00
H658   H     0.12170   0.12170   0.27180   0.00000  Uiso   1.00
C659   C     0.13630   0.63630   0.80120   0.00000  Uiso   1.00
H660   H     0.12170   0.62170   0.77180   0.00000  Uiso   1.00
C661   C     0.63630   0.13630   0.80120   0.00000  Uiso   1.00
H662   H     0.62170   0.12170   0.77180   0.00000  Uiso   1.00
C663   C     0.63630   0.63630   0.30120   0.00000  Uiso   1.00
H664   H     0.62170   0.62170   0.27180   0.00000  Uiso   1.00
C665   C     0.13630   0.86370   0.69880   0.00000  Uiso   1.00
H666   H     0.12170   0.87830   0.72820   0.00000  Uiso   1.00
C667   C     0.13630   0.36370   0.19880   0.00000  Uiso   1.00
H668   H     0.12170   0.37830   0.22820   0.00000  Uiso   1.00
C669   C     0.63630   0.86370   0.19880   0.00000  Uiso   1.00
H670   H     0.62170   0.87830   0.22820   0.00000  Uiso   1.00
C671   C     0.63630   0.36370   0.69880   0.00000  Uiso   1.00
H672   H     0.62170   0.37830   0.72820   0.00000  Uiso   1.00
loop_
_geom_bond_atom_site_label_1
_geom_bond_atom_site_label_2
_geom_bond_distance
_geom_bond_site_symmetry_2
_ccdc_geom_bond_type
O1     Mn193   2.104   1_556 S
O1     C290    1.233   .     S
O2     Mn195   2.104   .     S
O2     C292    1.233   .     S
O3     Mn197   2.104   .     S
O3     C448    1.233   .     S
O4     Mn199   2.104   1_556 S
O4     C446    1.233   .     S
O5     Mn201   2.104   1_556 S
O5     C294    1.233   .     S
O6     Mn203   2.104   .     S
O6     C296    1.233   .     S
O7     Mn205   2.104   .     S
O7     C450    1.233   .     S
O8     Mn207   2.104   1_556 S
O8     C298    1.233   .     S
O9     Mn209   2.104   .     S
O9     C300    1.233   .     S
O10    Mn211   2.104   .     S
O10    C302    1.233   .     S
O11    Mn213   2.104   .     S
O11    C304    1.233   .     S
O12    Mn215   2.104   .     S
O12    C456    1.233   .     S
O13    Mn217   2.104   .     S
O13    C306    1.233   .     S
O14    Mn219   2.104   .     S
O14    C308    1.233   .     S
O15    Mn221   2.104   .     S
O15    C454    1.233   .     S
O16    Mn223   2.104   .     S
O16    C452    1.233   .     S
O17    Mn225   2.104   1_655 S
O17    C310    1.233   .     S
O18    Mn227   2.104   1_655 S
O18    C476    1.233   .     S
O19    Mn229   2.104   .     S
O19    C312    1.233   .     S
O20    Mn231   2.104   .     S
O20    C478    1.233   .     S
O21    Mn233   2.104   1_655 S
O21    C314    1.233   .     S
O22    Mn235   2.104   1_655 S
O22    C316    1.233   .     S
O23    Mn237   2.104   .     S
O23    C318    1.233   .     S
O24    Mn239   2.104   .     S
O24    C480    1.233   .     S
O25    Mn241   2.104   .     S
O25    C320    1.233   .     S
O26    Mn243   2.104   .     S
O26    C474    1.233   .     S
O27    Mn245   2.104   .     S
O27    C322    1.233   .     S
O28    Mn247   2.104   .     S
O28    C324    1.233   .     S
O29    Mn249   2.104   .     S
O29    C326    1.233   .     S
O30    Mn251   2.104   .     S
O30    C470    1.233   .     S
O31    Mn253   2.104   .     S
O31    C328    1.233   .     S
O32    Mn255   2.104   .     S
O32    C472    1.233   .     S
O33    Mn257   2.104   1_565 S
O33    C330    1.233   .     S
O34    Mn259   2.104   .     S
O34    C332    1.233   .     S
O35    Mn261   2.104   1_565 S
O35    C466    1.233   .     S
O36    Mn263   2.104   .     S
O36    C468    1.233   .     S
O37    Mn265   2.104   1_565 S
O37    C334    1.233   .     S
O38    Mn267   2.104   .     S
O38    C336    1.233   .     S
O39    Mn269   2.104   1_565 S
O39    C338    1.233   .     S
O40    Mn271   2.104   .     S
O40    C464    1.233   .     S
O41    Mn273   2.104   .     S
O41    C340    1.233   .     S
O42    Mn275   2.104   .     S
O42    C342    1.233   .     S
O43    Mn277   2.104   .     S
O43    C458    1.233   .     S
O44    Mn279   2.104   .     S
O44    C460    1.233   .     S
O45    Mn281   2.104   .     S
O45    C344    1.233   .     S
O46    Mn283   2.104   .     S
O46    C346    1.233   .     S
O47    Mn285   2.104   .     S
O47    C462    1.233   .     S
O48    Mn287   2.104   .     S
O48    C348    1.233   .     S
O49    Mn193   2.104   .     S
O49    C350    1.233   .     S
O50    Mn195   2.104   .     S
O50    C352    1.233   .     S
O51    Mn197   2.104   .     S
O51    C412    1.233   .     S
O52    Mn199   2.104   .     S
O52    C410    1.233   .     S
O53    Mn201   2.104   .     S
O53    C354    1.233   .     S
O54    Mn203   2.104   .     S
O54    C356    1.233   .     S
O55    Mn205   2.104   .     S
O55    C414    1.233   .     S
O56    Mn207   2.104   .     S
O56    C358    1.233   .     S
O57    Mn217   2.104   1_556 S
O57    C360    1.233   .     S
O58    Mn219   2.104   .     S
O58    C362    1.233   .     S
O59    Mn221   2.104   .     S
O59    C420    1.233   .     S
O60    Mn223   2.104   1_556 S
O60    C418    1.233   .     S
O61    Mn209   2.104   1_556 S
O61    C364    1.233   .     S
O62    Mn211   2.104   .     S
O62    C366    1.233   .     S
O63    Mn213   2.104   .     S
O63    C368    1.233   .     S
O64    Mn215   2.104   1_556 S
O64    C416    1.233   .     S
O65    Mn273   2.104   1_565 S
O65    C370    1.233   .     S
O66    Mn275   2.104   .     S
O66    C372    1.233   .     S
O67    Mn277   2.104   1_565 S
O67    C440    1.233   .     S
O68    Mn279   2.104   .     S
O68    C442    1.233   .     S
O69    Mn281   2.104   1_565 S
O69    C374    1.233   .     S
O70    Mn283   2.104   .     S
O70    C376    1.233   .     S
O71    Mn285   2.104   1_565 S
O71    C444    1.233   .     S
O72    Mn287   2.104   .     S
O72    C378    1.233   .     S
O73    Mn265   2.104   .     S
O73    C380    1.233   .     S
O74    Mn267   2.104   .     S
O74    C382    1.233   .     S
O75    Mn269   2.104   .     S
O75    C384    1.233   .     S
O76    Mn271   2.104   .     S
O76    C438    1.233   .     S
O77    Mn257   2.104   .     S
O77    C386    1.233   .     S
O78    Mn259   2.104   .     S
O78    C388    1.233   .     S
O79    Mn261   2.104   .     S
O79    C434    1.233   .     S
O80    Mn263   2.104   .     S
O80    C436    1.233   .     S
O81    Mn249   2.104   1_655 S
O81    C390    1.233   .     S
O82    Mn251   2.104   1_655 S
O82    C430    1.233   .     S
O83    Mn253   2.104   .     S
O83    C392    1.233   .     S
O84    Mn255   2.104   .     S
O84    C432    1.233   .     S
O85    Mn241   2.104   1_655 S
O85    C394    1.233   .     S
O86    Mn243   2.104   1_655 S
O86    C428    1.233   .     S
O87    Mn245   2.104   .     S
O87    C396    1.233   .     S
O88    Mn247   2.104   .     S
O88    C398    1.233   .     S
O89    Mn225   2.104   .     S
O89    C400    1.233   .     S
O90    Mn227   2.104   .     S
O90    C422    1.233   .     S
O91    Mn229   2.104   .     S
O91    C402    1.233   .     S
O92    Mn231   2.104   .     S
O92    C424    1.233   .     S
O93    Mn233   2.104   .     S
O93    C404    1.233   .     S
O94    Mn235   2.104   .     S
O94    C406    1.233   .     S
O95    Mn237   2.104   .     S
O95    C408    1.233   .     S
O96    Mn239   2.104   .     S
O96    C426    1.233   .     S
O97    Mn201   2.104   .     S
O97    C410    1.233   .     S
O98    Mn203   2.104   .     S
O98    C412    1.233   .     S
O99    Mn205   2.104   .     S
O99    C352    1.233   .     S
O100   Mn207   2.104   .     S
O100   C350    1.233   .     S
O101   Mn193   2.104   .     S
O101   C358    1.233   .     S
O102   Mn195   2.104   .     S
O102   C414    1.233   .     S
O103   Mn197   2.104   .     S
O103   C356    1.233   .     S
O104   Mn199   2.104   .     S
O104   C354    1.233   .     S
O105   Mn217   2.104   1_556 S
O105   C416    1.233   .     S
O106   Mn219   2.104   .     S
O106   C368    1.233   .     S
O107   Mn221   2.104   .     S
O107   C366    1.233   .     S
O108   Mn223   2.104   1_556 S
O108   C364    1.233   .     S
O109   Mn209   2.104   1_556 S
O109   C418    1.233   .     S
O110   Mn211   2.104   .     S
O110   C420    1.233   .     S
O111   Mn213   2.104   .     S
O111   C362    1.233   .     S
O112   Mn215   2.104   1_556 S
O112   C360    1.233   .     S
O113   Mn233   2.104   .     S
O113   C422    1.233   .     S
O114   Mn235   2.104   .     S
O114   C400    1.233   .     S
O115   Mn237   2.104   .     S
O115   C424    1.233   .     S
O116   Mn239   2.104   .     S
O116   C402    1.233   .     S
O117   Mn225   2.104   .     S
O117   C406    1.233   .     S
O118   Mn227   2.104   .     S
O118   C404    1.233   .     S
O119   Mn229   2.104   .     S
O119   C426    1.233   .     S
O120   Mn231   2.104   .     S
O120   C408    1.233   .     S
O121   Mn249   2.104   1_655 S
O121   C428    1.233   .     S
O122   Mn251   2.104   1_655 S
O122   C394    1.233   .     S
O123   Mn253   2.104   .     S
O123   C398    1.233   .     S
O124   Mn255   2.104   .     S
O124   C396    1.233   .     S
O125   Mn241   2.104   1_655 S
O125   C430    1.233   .     S
O126   Mn243   2.104   1_655 S
O126   C390    1.233   .     S
O127   Mn245   2.104   .     S
O127   C432    1.233   .     S
O128   Mn247   2.104   .     S
O128   C392    1.233   .     S
O129   Mn265   2.104   .     S
O129   C434    1.233   .     S
O130   Mn267   2.104   .     S
O130   C436    1.233   .     S
O131   Mn269   2.104   .     S
O131   C386    1.233   .     S
O132   Mn271   2.104   .     S
O132   C388    1.233   .     S
O133   Mn257   2.104   .     S
O133   C384    1.233   .     S
O134   Mn259   2.104   .     S
O134   C438    1.233   .     S
O135   Mn261   2.104   .     S
O135   C380    1.233   .     S
O136   Mn263   2.104   .     S
O136   C382    1.233   .     S
O137   Mn281   2.104   1_565 S
O137   C440    1.233   .     S
O138   Mn283   2.104   .     S
O138   C442    1.233   .     S
O139   Mn285   2.104   1_565 S
O139   C370    1.233   .     S
O140   Mn287   2.104   .     S
O140   C372    1.233   .     S
O141   Mn273   2.104   1_565 S
O141   C444    1.233   .     S
O142   Mn275   2.104   .     S
O142   C378    1.233   .     S
O143   Mn277   2.104   1_565 S
O143   C374    1.233   .     S
O144   Mn279   2.104   .     S
O144   C376    1.233   .     S
O145   Mn201   2.104   1_556 S
O145   C446    1.233   .     S
O146   Mn203   2.104   .     S
O146   C448    1.233   .     S
O147   Mn205   2.104   .     S
O147   C292    1.233   .     S
O148   Mn207   2.104   1_556 S
O148   C290    1.233   .     S
O149   Mn193   2.104   1_556 S
O149   C298    1.233   .     S
O150   Mn195   2.104   .     S
O150   C450    1.233   .     S
O151   Mn197   2.104   .     S
O151   C296    1.233   .     S
O152   Mn199   2.104   1_556 S
O152   C294    1.233   .     S
O153   Mn209   2.104   .     S
O153   C452    1.233   .     S
O154   Mn211   2.104   .     S
O154   C454    1.233   .     S
O155   Mn213   2.104   .     S
O155   C308    1.233   .     S
O156   Mn215   2.104   .     S
O156   C306    1.233   .     S
O157   Mn217   2.104   .     S
O157   C456    1.233   .     S
O158   Mn219   2.104   .     S
O158   C304    1.233   .     S
O159   Mn221   2.104   .     S
O159   C302    1.233   .     S
O160   Mn223   2.104   .     S
O160   C300    1.233   .     S
O161   Mn281   2.104   .     S
O161   C458    1.233   .     S
O162   Mn283   2.104   .     S
O162   C460    1.233   .     S
O163   Mn285   2.104   .     S
O163   C340    1.233   .     S
O164   Mn287   2.104   .     S
O164   C342    1.233   .     S
O165   Mn273   2.104   .     S
O165   C462    1.233   .     S
O166   Mn275   2.104   .     S
O166   C348    1.233   .     S
O167   Mn277   2.104   .     S
O167   C344    1.233   .     S
O168   Mn279   2.104   .     S
O168   C346    1.233   .     S
O169   Mn257   2.104   1_565 S
O169   C338    1.233   .     S
O170   Mn259   2.104   .     S
O170   C464    1.233   .     S
O171   Mn261   2.104   1_565 S
O171   C334    1.233   .     S
O172   Mn263   2.104   .     S
O172   C336    1.233   .     S
O173   Mn265   2.104   1_565 S
O173   C466    1.233   .     S
O174   Mn267   2.104   .     S
O174   C468    1.233   .     S
O175   Mn269   2.104   1_565 S
O175   C330    1.233   .     S
O176   Mn271   2.104   .     S
O176   C332    1.233   .     S
O177   Mn241   2.104   .     S
O177   C470    1.233   .     S
O178   Mn243   2.104   .     S
O178   C326    1.233   .     S
O179   Mn245   2.104   .     S
O179   C472    1.233   .     S
O180   Mn247   2.104   .     S
O180   C328    1.233   .     S
O181   Mn249   2.104   .     S
O181   C474    1.233   .     S
O182   Mn251   2.104   .     S
O182   C320    1.233   .     S
O183   Mn253   2.104   .     S
O183   C324    1.233   .     S
O184   Mn255   2.104   .     S
O184   C322    1.233   .     S
O185   Mn233   2.104   1_655 S
O185   C476    1.233   .     S
O186   Mn235   2.104   1_655 S
O186   C310    1.233   .     S
O187   Mn237   2.104   .     S
O187   C478    1.233   .     S
O188   Mn239   2.104   .     S
O188   C312    1.233   .     S
O189   Mn225   2.104   1_655 S
O189   C316    1.233   .     S
O190   Mn227   2.104   1_655 S
O190   C314    1.233   .     S
O191   Mn229   2.104   .     S
O191   C480    1.233   .     S
O192   Mn231   2.104   .     S
O192   C318    1.233   .     S
Mn193  Cl194   2.362   .     S
Mn193  O1      2.104   1_554 S
Mn193  O149    2.104   1_554 S
Mn195  Cl196   2.362   .     S
Mn197  Cl198   2.362   .     S
Mn199  Cl200   2.362   .     S
Mn199  O4      2.104   1_554 S
Mn199  O152    2.104   1_554 S
Mn201  Cl202   2.362   .     S
Mn201  O5      2.104   1_554 S
Mn201  O145    2.104   1_554 S
Mn203  Cl204   2.362   .     S
Mn205  Cl206   2.362   .     S
Mn207  Cl208   2.362   .     S
Mn207  O8      2.104   1_554 S
Mn207  O148    2.104   1_554 S
Mn209  Cl210   2.362   .     S
Mn209  O61     2.104   1_554 S
Mn209  O109    2.104   1_554 S
Mn211  Cl212   2.362   .     S
Mn213  Cl214   2.362   .     S
Mn215  Cl216   2.362   .     S
Mn215  O64     2.104   1_554 S
Mn215  O112    2.104   1_554 S
Mn217  Cl218   2.362   .     S
Mn217  O57     2.104   1_554 S
Mn217  O105    2.104   1_554 S
Mn219  Cl220   2.362   .     S
Mn221  Cl222   2.362   .     S
Mn223  Cl224   2.362   .     S
Mn223  O60     2.104   1_554 S
Mn223  O108    2.104   1_554 S
Mn225  Cl226   2.362   .     S
Mn225  O17     2.104   1_455 S
Mn225  O189    2.104   1_455 S
Mn227  Cl228   2.362   .     S
Mn227  O18     2.104   1_455 S
Mn227  O190    2.104   1_455 S
Mn229  Cl230   2.362   .     S
Mn231  Cl232   2.362   .     S
Mn233  Cl234   2.362   .     S
Mn233  O21     2.104   1_455 S
Mn233  O185    2.104   1_455 S
Mn235  Cl236   2.362   .     S
Mn235  O22     2.104   1_455 S
Mn235  O186    2.104   1_455 S
Mn237  Cl238   2.362   .     S
Mn239  Cl240   2.362   .     S
Mn241  Cl242   2.362   .     S
Mn241  O85     2.104   1_455 S
Mn241  O125    2.104   1_455 S
Mn243  Cl244   2.362   .     S
Mn243  O86     2.104   1_455 S
Mn243  O126    2.104   1_455 S
Mn245  Cl246   2.362   .     S
Mn247  Cl248   2.362   .     S
Mn249  Cl250   2.362   .     S
Mn249  O81     2.104   1_455 S
Mn249  O121    2.104   1_455 S
Mn251  Cl252   2.362   .     S
Mn251  O82     2.104   1_455 S
Mn251  O122    2.104   1_455 S
Mn253  Cl254   2.362   .     S
Mn255  Cl256   2.362   .     S
Mn257  Cl258   2.362   .     S
Mn257  O33     2.104   1_545 S
Mn257  O169    2.104   1_545 S
Mn259  Cl260   2.362   .     S
Mn261  Cl262   2.362   .     S
Mn261  O35     2.104   1_545 S
Mn261  O171    2.104   1_545 S
Mn263  Cl264   2.362   .     S
Mn265  Cl266   2.362   .     S
Mn265  O37     2.104   1_545 S
Mn265  O173    2.104   1_545 S
Mn267  Cl268   2.362   .     S
Mn269  Cl270   2.362   .     S
Mn269  O39     2.104   1_545 S
Mn269  O175    2.104   1_545 S
Mn271  Cl272   2.362   .     S
Mn273  Cl274   2.362   .     S
Mn273  O65     2.104   1_545 S
Mn273  O141    2.104   1_545 S
Mn275  Cl276   2.362   .     S
Mn277  Cl278   2.362   .     S
Mn277  O67     2.104   1_545 S
Mn277  O143    2.104   1_545 S
Mn279  Cl280   2.362   .     S
Mn281  Cl282   2.362   .     S
Mn281  O69     2.104   1_545 S
Mn281  O137    2.104   1_545 S
Mn283  Cl284   2.362   .     S
Mn285  Cl286   2.362   .     S
Mn285  O71     2.104   1_545 S
Mn285  O139    2.104   1_545 S
Mn287  Cl288   2.362   .     S
C289   C481    1.371   .     S
C289   C527    1.371   .     S
C289   C290    1.518   .     S
C291   C483    1.371   .     S
C291   C525    1.371   .     S
C291   C292    1.518   .     S
C293   C489    1.371   .     S
C293   C543    1.371   .     S
C293   C294    1.518   .     S
C295   C491    1.371   .     S
C295   C541    1.371   .     S
C295   C296    1.518   .     S
C297   C537    1.371   .     S
C297   C495    1.371   .     S
C297   C298    1.518   .     S
C299   C497    1.371   .     S
C299   C535    1.371   .     S
C299   C300    1.518   .     S
C301   C499    1.371   .     S
C301   C533    1.371   .     S
C301   C302    1.518   .     S
C303   C531    1.371   .     S
C303   C501    1.371   .     S
C303   C304    1.518   .     S
C305   C505    1.371   .     S
C305   C519    1.371   .     S
C305   C306    1.518   .     S
C307   C507    1.371   .     S
C307   C517    1.371   .     S
C307   C308    1.518   .     S
C309   C513    1.371   .     S
C309   C555    1.371   .     S
C309   C310    1.518   .     S
C311   C517    1.371   .     S
C311   C559    1.371   .     S
C311   C312    1.518   .     S
C313   C521    1.371   .     S
C313   C571    1.371   .     S
C313   C314    1.518   .     S
C315   C569    1.371   .     S
C315   C523    1.371   .     S
C315   C316    1.518   .     S
C317   C525    1.371   .     S
C317   C575    1.371   .     S
C317   C318    1.518   .     S
C319   C529    1.371   .     S
C319   C563    1.371   .     S
C319   C320    1.518   .     S
C321   C533    1.371   .     S
C321   C567    1.371   .     S
C321   C322    1.518   .     S
C323   C565    1.371   .     S
C323   C535    1.371   .     S
C323   C324    1.518   .     S
C325   C537    1.371   .     S
C325   C547    1.371   .     S
C325   C326    1.518   .     S
C327   C541    1.371   .     S
C327   C551    1.371   .     S
C327   C328    1.518   .     S
C329   C545    1.371   .     S
C329   C493    1.371   .     S
C329   C330    1.518   .     S
C331   C547    1.371   .     S
C331   C495    1.371   .     S
C331   C332    1.518   .     S
C333   C553    1.371   .     S
C333   C509    1.371   .     S
C333   C334    1.518   .     S
C335   C555    1.371   .     S
C335   C511    1.371   .     S
C335   C336    1.518   .     S
C337   C505    1.371   .     S
C337   C557    1.371   .     S
C337   C338    1.518   .     S
C339   C561    1.371   .     S
C339   C501    1.371   .     S
C339   C340    1.518   .     S
C341   C563    1.371   .     S
C341   C503    1.371   .     S
C341   C342    1.518   .     S
C343   C569    1.371   .     S
C343   C485    1.371   .     S
C343   C344    1.518   .     S
C345   C571    1.371   .     S
C345   C487    1.371   .     S
C345   C346    1.518   .     S
C347   C483    1.371   .     S
C347   C575    1.371   .     S
C347   C348    1.518   .     S
C349   C577    1.371   .     S
C349   C623    1.371   .     S
C349   C350    1.518   .     S
C351   C579    1.371   .     S
C351   C621    1.371   .     S
C351   C352    1.518   .     S
C353   C585    1.371   .     S
C353   C639    1.371   .     S
C353   C354    1.518   .     S
C355   C587    1.371   .     S
C355   C637    1.371   .     S
C355   C356    1.518   .     S
C357   C633    1.371   .     S
C357   C591    1.371   .     S
C357   C358    1.518   .     S
C359   C593    1.371   .     S
C359   C631    1.371   .     S
C359   C360    1.518   .     S
C361   C595    1.371   .     S
C361   C629    1.371   .     S
C361   C362    1.518   .     S
C363   C601    1.371   .     S
C363   C615    1.371   .     S
C363   C364    1.518   .     S
C365   C603    1.371   .     S
C365   C613    1.371   .     S
C365   C366    1.518   .     S
C367   C611    1.371   .     S
C367   C605    1.371   .     S
C367   C368    1.518   .     S
C369   C609    1.371   .     S
C369   C653    1.371   .     S
C369   C370    1.518   .     S
C371   C611    1.371   .     S
C371   C655    1.371   .     S
C371   C372    1.518   .     S
C373   C617    1.371   .     S
C373   C669    1.371   .     S
C373   C374    1.518   .     S
C375   C619    1.371   .     S
C375   C671    1.371   .     S
C375   C376    1.518   .     S
C377   C667    1.371   .     S
C377   C623    1.371   .     S
C377   C378    1.518   .     S
C379   C625    1.371   .     S
C379   C661    1.371   .     S
C379   C380    1.518   .     S
C381   C627    1.371   .     S
C381   C663    1.371   .     S
C381   C382    1.518   .     S
C383   C657    1.371   .     S
C383   C629    1.371   .     S
C383   C384    1.518   .     S
C385   C633    1.371   .     S
C385   C645    1.371   .     S
C385   C386    1.518   .     S
C387   C635    1.371   .     S
C387   C647    1.371   .     S
C387   C388    1.518   .     S
C389   C641    1.371   .     S
C389   C587    1.371   .     S
C389   C390    1.518   .     S
C391   C645    1.371   .     S
C391   C591    1.371   .     S
C391   C392    1.518   .     S
C393   C649    1.371   .     S
C393   C603    1.371   .     S
C393   C394    1.518   .     S
C395   C653    1.371   .     S
C395   C607    1.371   .     S
C395   C396    1.518   .     S
C397   C605    1.371   .     S
C397   C655    1.371   .     S
C397   C398    1.518   .     S
C399   C657    1.371   .     S
C399   C595    1.371   .     S
C399   C400    1.518   .     S
C401   C661    1.371   .     S
C401   C599    1.371   .     S
C401   C402    1.518   .     S
C403   C665    1.371   .     S
C403   C579    1.371   .     S
C403   C404    1.518   .     S
C405   C577    1.371   .     S
C405   C667    1.371   .     S
C405   C406    1.518   .     S
C407   C669    1.371   .     S
C407   C583    1.371   .     S
C407   C408    1.518   .     S
C409   C617    1.371   .     S
C409   C583    1.371   .     S
C409   C410    1.518   .     S
C411   C619    1.371   .     S
C411   C581    1.371   .     S
C411   C412    1.518   .     S
C413   C635    1.371   .     S
C413   C589    1.371   .     S
C413   C414    1.518   .     S
C415   C609    1.371   .     S
C415   C607    1.371   .     S
C415   C416    1.518   .     S
C417   C625    1.371   .     S
C417   C599    1.371   .     S
C417   C418    1.518   .     S
C419   C627    1.371   .     S
C419   C597    1.371   .     S
C419   C420    1.518   .     S
C421   C593    1.371   .     S
C421   C659    1.371   .     S
C421   C422    1.518   .     S
C423   C597    1.371   .     S
C423   C663    1.371   .     S
C423   C424    1.518   .     S
C425   C581    1.371   .     S
C425   C671    1.371   .     S
C425   C426    1.518   .     S
C427   C601    1.371   .     S
C427   C651    1.371   .     S
C427   C428    1.518   .     S
C429   C585    1.371   .     S
C429   C643    1.371   .     S
C429   C430    1.518   .     S
C431   C589    1.371   .     S
C431   C647    1.371   .     S
C431   C432    1.518   .     S
C433   C641    1.371   .     S
C433   C637    1.371   .     S
C433   C434    1.518   .     S
C435   C643    1.371   .     S
C435   C639    1.371   .     S
C435   C436    1.518   .     S
C437   C659    1.371   .     S
C437   C631    1.371   .     S
C437   C438    1.518   .     S
C439   C649    1.371   .     S
C439   C613    1.371   .     S
C439   C440    1.518   .     S
C441   C651    1.371   .     S
C441   C615    1.371   .     S
C441   C442    1.518   .     S
C443   C665    1.371   .     S
C443   C621    1.371   .     S
C443   C444    1.518   .     S
C445   C521    1.371   .     S
C445   C487    1.371   .     S
C445   C446    1.518   .     S
C447   C523    1.371   .     S
C447   C485    1.371   .     S
C447   C448    1.518   .     S
C449   C539    1.371   .     S
C449   C493    1.371   .     S
C449   C450    1.518   .     S
C451   C513    1.371   .     S
C451   C511    1.371   .     S
C451   C452    1.518   .     S
C453   C515    1.371   .     S
C453   C509    1.371   .     S
C453   C454    1.518   .     S
C455   C529    1.371   .     S
C455   C503    1.371   .     S
C455   C456    1.518   .     S
C457   C497    1.371   .     S
C457   C565    1.371   .     S
C457   C458    1.518   .     S
C459   C499    1.371   .     S
C459   C567    1.371   .     S
C459   C460    1.518   .     S
C461   C481    1.371   .     S
C461   C573    1.371   .     S
C461   C462    1.518   .     S
C463   C507    1.371   .     S
C463   C559    1.371   .     S
C463   C464    1.518   .     S
C465   C489    1.371   .     S
C465   C549    1.371   .     S
C465   C466    1.518   .     S
C467   C491    1.371   .     S
C467   C551    1.371   .     S
C467   C468    1.518   .     S
C469   C545    1.371   .     S
C469   C539    1.371   .     S
C469   C470    1.518   .     S
C471   C549    1.371   .     S
C471   C543    1.371   .     S
C471   C472    1.518   .     S
C473   C561    1.371   .     S
C473   C531    1.371   .     S
C473   C474    1.518   .     S
C475   C553    1.371   .     S
C475   C515    1.371   .     S
C475   C476    1.518   .     S
C477   C557    1.371   .     S
C477   C519    1.371   .     S
C477   C478    1.518   .     S
C479   C573    1.371   .     S
C479   C527    1.371   .     S
C479   C480    1.518   .     S
C481   H482    0.962   .     S
C483   H484    0.962   .     S
C485   H486    0.962   .     S
C487   H488    0.962   .     S
C489   H490    0.962   .     S
C491   H492    0.962   .     S
C493   H494    0.962   .     S
C495   H496    0.962   .     S
C497   H498    0.962   .     S
C499   H500    0.962   .     S
C501   H502    0.962   .     S
C503   H504    0.962   .     S
C505   H506    0.962   .     S
C507   H508    0.962   .     S
C509   H510    0.962   .     S
C511   H512    0.962   .     S
C513   H514    0.962   .     S
C515   H516    0.962   .     S
C517   H518    0.962   .     S
C519   H520    0.962   .     S
C521   H522    0.962   .     S
C523   H524    0.962   .     S
C525   H526    0.962   .     S
C527   H528    0.962   .     S
C529   H530    0.962   .     S
C531   H532    0.962   .     S
C533   H534    0.962   .     S
C535   H536    0.962   .     S
C537   H538    0.962   .     S
C539   H540    0.962   .     S
C541   H542    0.962   .     S
C543   H544    0.962   .     S
C545   H546    0.962   .     S
C547   H548    0.962   .     S
C549   H550    0.962   .     S
C551   H552    0.962   .     S
C553   H554    0.962   .     S
C555   H556    0.962   .     S
C557   H558    0.962   .     S
C559   H560    0.962   .     S
C561   H562    0.962   .     S
C563   H564    0.962   .     S
C565   H566    0.962   .     S
C567   H568    0.962   .     S
C569   H570    0.962   .     S
C571   H572    0.962   .     S
C573   H574    0.962   .     S
C575   H576    0.962   .     S
C577   H578    0.962   .     S
C579   H580    0.962   .     S
C581   H582    0.962   .     S
C583   H584    0.962   .     S
C585   H586    0.962   .     S
C587   H588    0.962   .     S
C589   H590    0.962   .     S
C591   H592    0.962   .     S
C593   H594    0.962   .     S
C595   H596    0.962   .     S
C597   H598    0.962   .     S
C599   H600    0.962   .     S
C601   H602    0.962   .     S
C603   H604    0.962   .     S
C605   H606    0.962   .     S
C607   H608    0.962   .     S
C609   H610    0.962   .     S
C611   H612    0.962   .     S
C613   H614    0.962   .     S
C615   H616    0.962   .     S
C617   H618    0.962   .     S
C619   H620    0.962   .     S
C621   H622    0.962   .     S
C623   H624    0.962   .     S
C625   H626    0.962   .     S
C627   H628    0.962   .     S
C629   H630    0.962   .     S
C631   H632    0.962   .     S
C633   H634    0.962   .     S
C635   H636    0.962   .     S
C637   H638    0.962   .     S
C639   H640    0.962   .     S
C641   H642    0.962   .     S
C643   H644    0.962   .     S
C645   H646    0.962   .     S
C647   H648    0.962   .     S
C649   H650    0.962   .     S
C651   H652    0.962   .     S
C653   H654    0.962   .     S
C655   H656    0.962   .     S
C657   H658    0.962   .     S
C659   H660    0.962   .     S
C661   H662    0.962   .     S
C663   H664    0.962   .     S
C665   H666    0.962   .     S
C667   H668    0.962   .     S
C669   H670    0.962   .     S
C671   H672    0.962   .     S
