data_ABAYOU_FSR
_audit_creation_date              2024-06-11
_audit_creation_method            'Materials Studio'
_symmetry_space_group_name_H-M    'P1'
_symmetry_Int_Tables_number       1
_symmetry_cell_setting            triclinic
loop_
_symmetry_equiv_pos_as_xyz
  x,y,z
_cell_length_a                    26.6470
_cell_length_b                    26.6470
_cell_length_c                    26.6470
_cell_angle_alpha                 90.0000
_cell_angle_beta                  90.0000
_cell_angle_gamma                 90.0000
loop_
_atom_site_label
_atom_site_type_symbol
_atom_site_fract_x
_atom_site_fract_y
_atom_site_fract_z
_atom_site_U_iso_or_equiv
_atom_site_adp_type
_atom_site_occupancy
O1     O     0.24260   0.31700   0.05310   0.00000  Uiso   1.00
O2     O     0.24260   0.81700   0.55310   0.00000  Uiso   1.00
O3     O     0.74260   0.31700   0.55310   0.00000  Uiso   1.00
O4     O     0.74260   0.81700   0.05310   0.00000  Uiso   1.00
O5     O     0.75740   0.68300   0.05310   0.00000  Uiso   1.00
O6     O     0.75740   0.18300   0.55310   0.00000  Uiso   1.00
O7     O     0.25740   0.68300   0.55310   0.00000  Uiso   1.00
O8     O     0.25740   0.18300   0.05310   0.00000  Uiso   1.00
O9     O     0.75740   0.31700   0.94690   0.00000  Uiso   1.00
O10    O     0.75740   0.81700   0.44690   0.00000  Uiso   1.00
O11    O     0.25740   0.31700   0.44690   0.00000  Uiso   1.00
O12    O     0.25740   0.81700   0.94690   0.00000  Uiso   1.00
O13    O     0.24260   0.68300   0.94690   0.00000  Uiso   1.00
O14    O     0.24260   0.18300   0.44690   0.00000  Uiso   1.00
O15    O     0.74260   0.68300   0.44690   0.00000  Uiso   1.00
O16    O     0.74260   0.18300   0.94690   0.00000  Uiso   1.00
O17    O     0.05310   0.24260   0.31700   0.00000  Uiso   1.00
O18    O     0.05310   0.74260   0.81700   0.00000  Uiso   1.00
O19    O     0.55310   0.24260   0.81700   0.00000  Uiso   1.00
O20    O     0.55310   0.74260   0.31700   0.00000  Uiso   1.00
O21    O     0.05310   0.75740   0.68300   0.00000  Uiso   1.00
O22    O     0.05310   0.25740   0.18300   0.00000  Uiso   1.00
O23    O     0.55310   0.75740   0.18300   0.00000  Uiso   1.00
O24    O     0.55310   0.25740   0.68300   0.00000  Uiso   1.00
O25    O     0.94690   0.75740   0.31700   0.00000  Uiso   1.00
O26    O     0.94690   0.25740   0.81700   0.00000  Uiso   1.00
O27    O     0.44690   0.75740   0.81700   0.00000  Uiso   1.00
O28    O     0.44690   0.25740   0.31700   0.00000  Uiso   1.00
O29    O     0.94690   0.24260   0.68300   0.00000  Uiso   1.00
O30    O     0.94690   0.74260   0.18300   0.00000  Uiso   1.00
O31    O     0.44690   0.24260   0.18300   0.00000  Uiso   1.00
O32    O     0.44690   0.74260   0.68300   0.00000  Uiso   1.00
O33    O     0.31700   0.05310   0.24260   0.00000  Uiso   1.00
O34    O     0.31700   0.55310   0.74260   0.00000  Uiso   1.00
O35    O     0.81700   0.05310   0.74260   0.00000  Uiso   1.00
O36    O     0.81700   0.55310   0.24260   0.00000  Uiso   1.00
O37    O     0.68300   0.05310   0.75740   0.00000  Uiso   1.00
O38    O     0.68300   0.55310   0.25740   0.00000  Uiso   1.00
O39    O     0.18300   0.05310   0.25740   0.00000  Uiso   1.00
O40    O     0.18300   0.55310   0.75740   0.00000  Uiso   1.00
O41    O     0.31700   0.94690   0.75740   0.00000  Uiso   1.00
O42    O     0.31700   0.44690   0.25740   0.00000  Uiso   1.00
O43    O     0.81700   0.94690   0.25740   0.00000  Uiso   1.00
O44    O     0.81700   0.44690   0.75740   0.00000  Uiso   1.00
O45    O     0.68300   0.94690   0.24260   0.00000  Uiso   1.00
O46    O     0.68300   0.44690   0.74260   0.00000  Uiso   1.00
O47    O     0.18300   0.94690   0.74260   0.00000  Uiso   1.00
O48    O     0.18300   0.44690   0.24260   0.00000  Uiso   1.00
O49    O     0.31700   0.24260   0.94690   0.00000  Uiso   1.00
O50    O     0.31700   0.74260   0.44690   0.00000  Uiso   1.00
O51    O     0.81700   0.24260   0.44690   0.00000  Uiso   1.00
O52    O     0.81700   0.74260   0.94690   0.00000  Uiso   1.00
O53    O     0.68300   0.75740   0.94690   0.00000  Uiso   1.00
O54    O     0.68300   0.25740   0.44690   0.00000  Uiso   1.00
O55    O     0.18300   0.75740   0.44690   0.00000  Uiso   1.00
O56    O     0.18300   0.25740   0.94690   0.00000  Uiso   1.00
O57    O     0.31700   0.75740   0.05310   0.00000  Uiso   1.00
O58    O     0.31700   0.25740   0.55310   0.00000  Uiso   1.00
O59    O     0.81700   0.75740   0.55310   0.00000  Uiso   1.00
O60    O     0.81700   0.25740   0.05310   0.00000  Uiso   1.00
O61    O     0.68300   0.24260   0.05310   0.00000  Uiso   1.00
O62    O     0.68300   0.74260   0.55310   0.00000  Uiso   1.00
O63    O     0.18300   0.24260   0.55310   0.00000  Uiso   1.00
O64    O     0.18300   0.74260   0.05310   0.00000  Uiso   1.00
O65    O     0.24260   0.05310   0.68300   0.00000  Uiso   1.00
O66    O     0.24260   0.55310   0.18300   0.00000  Uiso   1.00
O67    O     0.74260   0.05310   0.18300   0.00000  Uiso   1.00
O68    O     0.74260   0.55310   0.68300   0.00000  Uiso   1.00
O69    O     0.75740   0.05310   0.31700   0.00000  Uiso   1.00
O70    O     0.75740   0.55310   0.81700   0.00000  Uiso   1.00
O71    O     0.25740   0.05310   0.81700   0.00000  Uiso   1.00
O72    O     0.25740   0.55310   0.31700   0.00000  Uiso   1.00
O73    O     0.75740   0.94690   0.68300   0.00000  Uiso   1.00
O74    O     0.75740   0.44690   0.18300   0.00000  Uiso   1.00
O75    O     0.25740   0.94690   0.18300   0.00000  Uiso   1.00
O76    O     0.25740   0.44690   0.68300   0.00000  Uiso   1.00
O77    O     0.24260   0.94690   0.31700   0.00000  Uiso   1.00
O78    O     0.24260   0.44690   0.81700   0.00000  Uiso   1.00
O79    O     0.74260   0.94690   0.81700   0.00000  Uiso   1.00
O80    O     0.74260   0.44690   0.31700   0.00000  Uiso   1.00
O81    O     0.05310   0.31700   0.75740   0.00000  Uiso   1.00
O82    O     0.05310   0.81700   0.25740   0.00000  Uiso   1.00
O83    O     0.55310   0.31700   0.25740   0.00000  Uiso   1.00
O84    O     0.55310   0.81700   0.75740   0.00000  Uiso   1.00
O85    O     0.05310   0.68300   0.24260   0.00000  Uiso   1.00
O86    O     0.05310   0.18300   0.74260   0.00000  Uiso   1.00
O87    O     0.55310   0.68300   0.74260   0.00000  Uiso   1.00
O88    O     0.55310   0.18300   0.24260   0.00000  Uiso   1.00
O89    O     0.94690   0.31700   0.24260   0.00000  Uiso   1.00
O90    O     0.94690   0.81700   0.74260   0.00000  Uiso   1.00
O91    O     0.44690   0.31700   0.74260   0.00000  Uiso   1.00
O92    O     0.44690   0.81700   0.24260   0.00000  Uiso   1.00
O93    O     0.94690   0.68300   0.75740   0.00000  Uiso   1.00
O94    O     0.94690   0.18300   0.25740   0.00000  Uiso   1.00
O95    O     0.44690   0.68300   0.25740   0.00000  Uiso   1.00
O96    O     0.44690   0.18300   0.75740   0.00000  Uiso   1.00
O97    O     0.75740   0.68300   0.94690   0.00000  Uiso   1.00
O98    O     0.75740   0.18300   0.44690   0.00000  Uiso   1.00
O99    O     0.25740   0.68300   0.44690   0.00000  Uiso   1.00
O100   O     0.25740   0.18300   0.94690   0.00000  Uiso   1.00
O101   O     0.24260   0.31700   0.94690   0.00000  Uiso   1.00
O102   O     0.24260   0.81700   0.44690   0.00000  Uiso   1.00
O103   O     0.74260   0.31700   0.44690   0.00000  Uiso   1.00
O104   O     0.74260   0.81700   0.94690   0.00000  Uiso   1.00
O105   O     0.24260   0.68300   0.05310   0.00000  Uiso   1.00
O106   O     0.24260   0.18300   0.55310   0.00000  Uiso   1.00
O107   O     0.74260   0.68300   0.55310   0.00000  Uiso   1.00
O108   O     0.74260   0.18300   0.05310   0.00000  Uiso   1.00
O109   O     0.75740   0.31700   0.05310   0.00000  Uiso   1.00
O110   O     0.75740   0.81700   0.55310   0.00000  Uiso   1.00
O111   O     0.25740   0.31700   0.55310   0.00000  Uiso   1.00
O112   O     0.25740   0.81700   0.05310   0.00000  Uiso   1.00
O113   O     0.94690   0.75740   0.68300   0.00000  Uiso   1.00
O114   O     0.94690   0.25740   0.18300   0.00000  Uiso   1.00
O115   O     0.44690   0.75740   0.18300   0.00000  Uiso   1.00
O116   O     0.44690   0.25740   0.68300   0.00000  Uiso   1.00
O117   O     0.94690   0.24260   0.31700   0.00000  Uiso   1.00
O118   O     0.94690   0.74260   0.81700   0.00000  Uiso   1.00
O119   O     0.44690   0.24260   0.81700   0.00000  Uiso   1.00
O120   O     0.44690   0.74260   0.31700   0.00000  Uiso   1.00
O121   O     0.05310   0.24260   0.68300   0.00000  Uiso   1.00
O122   O     0.05310   0.74260   0.18300   0.00000  Uiso   1.00
O123   O     0.55310   0.24260   0.18300   0.00000  Uiso   1.00
O124   O     0.55310   0.74260   0.68300   0.00000  Uiso   1.00
O125   O     0.05310   0.75740   0.31700   0.00000  Uiso   1.00
O126   O     0.05310   0.25740   0.81700   0.00000  Uiso   1.00
O127   O     0.55310   0.75740   0.81700   0.00000  Uiso   1.00
O128   O     0.55310   0.25740   0.31700   0.00000  Uiso   1.00
O129   O     0.68300   0.94690   0.75740   0.00000  Uiso   1.00
O130   O     0.68300   0.44690   0.25740   0.00000  Uiso   1.00
O131   O     0.18300   0.94690   0.25740   0.00000  Uiso   1.00
O132   O     0.18300   0.44690   0.75740   0.00000  Uiso   1.00
O133   O     0.31700   0.94690   0.24260   0.00000  Uiso   1.00
O134   O     0.31700   0.44690   0.74260   0.00000  Uiso   1.00
O135   O     0.81700   0.94690   0.74260   0.00000  Uiso   1.00
O136   O     0.81700   0.44690   0.24260   0.00000  Uiso   1.00
O137   O     0.68300   0.05310   0.24260   0.00000  Uiso   1.00
O138   O     0.68300   0.55310   0.74260   0.00000  Uiso   1.00
O139   O     0.18300   0.05310   0.74260   0.00000  Uiso   1.00
O140   O     0.18300   0.55310   0.24260   0.00000  Uiso   1.00
O141   O     0.31700   0.05310   0.75740   0.00000  Uiso   1.00
O142   O     0.31700   0.55310   0.25740   0.00000  Uiso   1.00
O143   O     0.81700   0.05310   0.25740   0.00000  Uiso   1.00
O144   O     0.81700   0.55310   0.75740   0.00000  Uiso   1.00
O145   O     0.68300   0.75740   0.05310   0.00000  Uiso   1.00
O146   O     0.68300   0.25740   0.55310   0.00000  Uiso   1.00
O147   O     0.18300   0.75740   0.55310   0.00000  Uiso   1.00
O148   O     0.18300   0.25740   0.05310   0.00000  Uiso   1.00
O149   O     0.31700   0.24260   0.05310   0.00000  Uiso   1.00
O150   O     0.31700   0.74260   0.55310   0.00000  Uiso   1.00
O151   O     0.81700   0.24260   0.55310   0.00000  Uiso   1.00
O152   O     0.81700   0.74260   0.05310   0.00000  Uiso   1.00
O153   O     0.68300   0.24260   0.94690   0.00000  Uiso   1.00
O154   O     0.68300   0.74260   0.44690   0.00000  Uiso   1.00
O155   O     0.18300   0.24260   0.44690   0.00000  Uiso   1.00
O156   O     0.18300   0.74260   0.94690   0.00000  Uiso   1.00
O157   O     0.31700   0.75740   0.94690   0.00000  Uiso   1.00
O158   O     0.31700   0.25740   0.44690   0.00000  Uiso   1.00
O159   O     0.81700   0.75740   0.44690   0.00000  Uiso   1.00
O160   O     0.81700   0.25740   0.94690   0.00000  Uiso   1.00
O161   O     0.75740   0.94690   0.31700   0.00000  Uiso   1.00
O162   O     0.75740   0.44690   0.81700   0.00000  Uiso   1.00
O163   O     0.25740   0.94690   0.81700   0.00000  Uiso   1.00
O164   O     0.25740   0.44690   0.31700   0.00000  Uiso   1.00
O165   O     0.24260   0.94690   0.68300   0.00000  Uiso   1.00
O166   O     0.24260   0.44690   0.18300   0.00000  Uiso   1.00
O167   O     0.74260   0.94690   0.18300   0.00000  Uiso   1.00
O168   O     0.74260   0.44690   0.68300   0.00000  Uiso   1.00
O169   O     0.24260   0.05310   0.31700   0.00000  Uiso   1.00
O170   O     0.24260   0.55310   0.81700   0.00000  Uiso   1.00
O171   O     0.74260   0.05310   0.81700   0.00000  Uiso   1.00
O172   O     0.74260   0.55310   0.31700   0.00000  Uiso   1.00
O173   O     0.75740   0.05310   0.68300   0.00000  Uiso   1.00
O174   O     0.75740   0.55310   0.18300   0.00000  Uiso   1.00
O175   O     0.25740   0.05310   0.18300   0.00000  Uiso   1.00
O176   O     0.25740   0.55310   0.68300   0.00000  Uiso   1.00
O177   O     0.94690   0.68300   0.24260   0.00000  Uiso   1.00
O178   O     0.94690   0.18300   0.74260   0.00000  Uiso   1.00
O179   O     0.44690   0.68300   0.74260   0.00000  Uiso   1.00
O180   O     0.44690   0.18300   0.24260   0.00000  Uiso   1.00
O181   O     0.94690   0.31700   0.75740   0.00000  Uiso   1.00
O182   O     0.94690   0.81700   0.25740   0.00000  Uiso   1.00
O183   O     0.44690   0.31700   0.25740   0.00000  Uiso   1.00
O184   O     0.44690   0.81700   0.75740   0.00000  Uiso   1.00
O185   O     0.05310   0.68300   0.75740   0.00000  Uiso   1.00
O186   O     0.05310   0.18300   0.25740   0.00000  Uiso   1.00
O187   O     0.55310   0.68300   0.25740   0.00000  Uiso   1.00
O188   O     0.55310   0.18300   0.75740   0.00000  Uiso   1.00
O189   O     0.05310   0.31700   0.24260   0.00000  Uiso   1.00
O190   O     0.05310   0.81700   0.74260   0.00000  Uiso   1.00
O191   O     0.55310   0.31700   0.74260   0.00000  Uiso   1.00
O192   O     0.55310   0.81700   0.24260   0.00000  Uiso   1.00
Co193  Co    0.28976   0.28976   0.00000   0.00000  Uiso   1.00
Cl194  Cl    0.35040   0.35040   0.00000   0.00000  Uiso   1.00
Co195  Co    0.28976   0.78976   0.50000   0.00000  Uiso   1.00
Cl196  Cl    0.35040   0.85040   0.50000   0.00000  Uiso   1.00
Co197  Co    0.78976   0.28976   0.50000   0.00000  Uiso   1.00
Cl198  Cl    0.85040   0.35040   0.50000   0.00000  Uiso   1.00
Co199  Co    0.78976   0.78976   0.00000   0.00000  Uiso   1.00
Cl200  Cl    0.85040   0.85040   0.00000   0.00000  Uiso   1.00
Co201  Co    0.71024   0.71024   0.00000   0.00000  Uiso   1.00
Cl202  Cl    0.64960   0.64960   0.00000   0.00000  Uiso   1.00
Co203  Co    0.71024   0.21024   0.50000   0.00000  Uiso   1.00
Cl204  Cl    0.64960   0.14960   0.50000   0.00000  Uiso   1.00
Co205  Co    0.21024   0.71024   0.50000   0.00000  Uiso   1.00
Cl206  Cl    0.14960   0.64960   0.50000   0.00000  Uiso   1.00
Co207  Co    0.21024   0.21024   0.00000   0.00000  Uiso   1.00
Cl208  Cl    0.14960   0.14960   0.00000   0.00000  Uiso   1.00
Co209  Co    0.71024   0.28976   0.00000   0.00000  Uiso   1.00
Cl210  Cl    0.64960   0.35040   0.00000   0.00000  Uiso   1.00
Co211  Co    0.71024   0.78976   0.50000   0.00000  Uiso   1.00
Cl212  Cl    0.64960   0.85040   0.50000   0.00000  Uiso   1.00
Co213  Co    0.21024   0.28976   0.50000   0.00000  Uiso   1.00
Cl214  Cl    0.14960   0.35040   0.50000   0.00000  Uiso   1.00
Co215  Co    0.21024   0.78976   0.00000   0.00000  Uiso   1.00
Cl216  Cl    0.14960   0.85040   0.00000   0.00000  Uiso   1.00
Co217  Co    0.28976   0.71024   0.00000   0.00000  Uiso   1.00
Cl218  Cl    0.35040   0.64960   0.00000   0.00000  Uiso   1.00
Co219  Co    0.28976   0.21024   0.50000   0.00000  Uiso   1.00
Cl220  Cl    0.35040   0.14960   0.50000   0.00000  Uiso   1.00
Co221  Co    0.78976   0.71024   0.50000   0.00000  Uiso   1.00
Cl222  Cl    0.85040   0.64960   0.50000   0.00000  Uiso   1.00
Co223  Co    0.78976   0.21024   0.00000   0.00000  Uiso   1.00
Cl224  Cl    0.85040   0.14960   0.00000   0.00000  Uiso   1.00
Co225  Co    0.00000   0.28976   0.28976   0.00000  Uiso   1.00
Cl226  Cl    0.00000   0.35040   0.35040   0.00000  Uiso   1.00
Co227  Co    0.00000   0.78976   0.78976   0.00000  Uiso   1.00
Cl228  Cl    0.00000   0.85040   0.85040   0.00000  Uiso   1.00
Co229  Co    0.50000   0.28976   0.78976   0.00000  Uiso   1.00
Cl230  Cl    0.50000   0.35040   0.85040   0.00000  Uiso   1.00
Co231  Co    0.50000   0.78976   0.28976   0.00000  Uiso   1.00
Cl232  Cl    0.50000   0.85040   0.35040   0.00000  Uiso   1.00
Co233  Co    0.00000   0.71024   0.71024   0.00000  Uiso   1.00
Cl234  Cl    0.00000   0.64960   0.64960   0.00000  Uiso   1.00
Co235  Co    0.00000   0.21024   0.21024   0.00000  Uiso   1.00
Cl236  Cl    0.00000   0.14960   0.14960   0.00000  Uiso   1.00
Co237  Co    0.50000   0.71024   0.21024   0.00000  Uiso   1.00
Cl238  Cl    0.50000   0.64960   0.14960   0.00000  Uiso   1.00
Co239  Co    0.50000   0.21024   0.71024   0.00000  Uiso   1.00
Cl240  Cl    0.50000   0.14960   0.64960   0.00000  Uiso   1.00
Co241  Co    0.00000   0.71024   0.28976   0.00000  Uiso   1.00
Cl242  Cl    0.00000   0.64960   0.35040   0.00000  Uiso   1.00
Co243  Co    0.00000   0.21024   0.78976   0.00000  Uiso   1.00
Cl244  Cl    0.00000   0.14960   0.85040   0.00000  Uiso   1.00
Co245  Co    0.50000   0.71024   0.78976   0.00000  Uiso   1.00
Cl246  Cl    0.50000   0.64960   0.85040   0.00000  Uiso   1.00
Co247  Co    0.50000   0.21024   0.28976   0.00000  Uiso   1.00
Cl248  Cl    0.50000   0.14960   0.35040   0.00000  Uiso   1.00
Co249  Co    0.00000   0.28976   0.71024   0.00000  Uiso   1.00
Cl250  Cl    0.00000   0.35040   0.64960   0.00000  Uiso   1.00
Co251  Co    0.00000   0.78976   0.21024   0.00000  Uiso   1.00
Cl252  Cl    0.00000   0.85040   0.14960   0.00000  Uiso   1.00
Co253  Co    0.50000   0.28976   0.21024   0.00000  Uiso   1.00
Cl254  Cl    0.50000   0.35040   0.14960   0.00000  Uiso   1.00
Co255  Co    0.50000   0.78976   0.71024   0.00000  Uiso   1.00
Cl256  Cl    0.50000   0.85040   0.64960   0.00000  Uiso   1.00
Co257  Co    0.28976   0.00000   0.28976   0.00000  Uiso   1.00
Cl258  Cl    0.35040   0.00000   0.35040   0.00000  Uiso   1.00
Co259  Co    0.28976   0.50000   0.78976   0.00000  Uiso   1.00
Cl260  Cl    0.35040   0.50000   0.85040   0.00000  Uiso   1.00
Co261  Co    0.78976   0.00000   0.78976   0.00000  Uiso   1.00
Cl262  Cl    0.85040   0.00000   0.85040   0.00000  Uiso   1.00
Co263  Co    0.78976   0.50000   0.28976   0.00000  Uiso   1.00
Cl264  Cl    0.85040   0.50000   0.35040   0.00000  Uiso   1.00
Co265  Co    0.71024   0.00000   0.71024   0.00000  Uiso   1.00
Cl266  Cl    0.64960   0.00000   0.64960   0.00000  Uiso   1.00
Co267  Co    0.71024   0.50000   0.21024   0.00000  Uiso   1.00
Cl268  Cl    0.64960   0.50000   0.14960   0.00000  Uiso   1.00
Co269  Co    0.21024   0.00000   0.21024   0.00000  Uiso   1.00
Cl270  Cl    0.14960   0.00000   0.14960   0.00000  Uiso   1.00
Co271  Co    0.21024   0.50000   0.71024   0.00000  Uiso   1.00
Cl272  Cl    0.14960   0.50000   0.64960   0.00000  Uiso   1.00
Co273  Co    0.28976   0.00000   0.71024   0.00000  Uiso   1.00
Cl274  Cl    0.35040   0.00000   0.64960   0.00000  Uiso   1.00
Co275  Co    0.28976   0.50000   0.21024   0.00000  Uiso   1.00
Cl276  Cl    0.35040   0.50000   0.14960   0.00000  Uiso   1.00
Co277  Co    0.78976   0.00000   0.21024   0.00000  Uiso   1.00
Cl278  Cl    0.85040   0.00000   0.14960   0.00000  Uiso   1.00
Co279  Co    0.78976   0.50000   0.71024   0.00000  Uiso   1.00
Cl280  Cl    0.85040   0.50000   0.64960   0.00000  Uiso   1.00
Co281  Co    0.71024   0.00000   0.28976   0.00000  Uiso   1.00
Cl282  Cl    0.64960   0.00000   0.35040   0.00000  Uiso   1.00
Co283  Co    0.71024   0.50000   0.78976   0.00000  Uiso   1.00
Cl284  Cl    0.64960   0.50000   0.85040   0.00000  Uiso   1.00
Co285  Co    0.21024   0.00000   0.78976   0.00000  Uiso   1.00
Cl286  Cl    0.14960   0.00000   0.85040   0.00000  Uiso   1.00
Co287  Co    0.21024   0.50000   0.28976   0.00000  Uiso   1.00
Cl288  Cl    0.14960   0.50000   0.35040   0.00000  Uiso   1.00
C289   C     0.20240   0.29760   0.06900   0.00000  Uiso   1.00
C290   C     0.17780   0.32220   0.11430   0.00000  Uiso   1.00
C291   C     0.20240   0.79760   0.56900   0.00000  Uiso   1.00
C292   C     0.17780   0.82220   0.61430   0.00000  Uiso   1.00
C293   C     0.79760   0.70240   0.06900   0.00000  Uiso   1.00
C294   C     0.82220   0.67780   0.11430   0.00000  Uiso   1.00
C295   C     0.79760   0.20240   0.56900   0.00000  Uiso   1.00
C296   C     0.82220   0.17780   0.61430   0.00000  Uiso   1.00
C297   C     0.29760   0.20240   0.06900   0.00000  Uiso   1.00
C298   C     0.32220   0.17780   0.11430   0.00000  Uiso   1.00
C299   C     0.79760   0.29760   0.93100   0.00000  Uiso   1.00
C300   C     0.82220   0.32220   0.88570   0.00000  Uiso   1.00
C301   C     0.79760   0.79760   0.43100   0.00000  Uiso   1.00
C302   C     0.82220   0.82220   0.38570   0.00000  Uiso   1.00
C303   C     0.29760   0.29760   0.43100   0.00000  Uiso   1.00
C304   C     0.32220   0.32220   0.38570   0.00000  Uiso   1.00
C305   C     0.20240   0.70240   0.93100   0.00000  Uiso   1.00
C306   C     0.17780   0.67780   0.88570   0.00000  Uiso   1.00
C307   C     0.20240   0.20240   0.43100   0.00000  Uiso   1.00
C308   C     0.17780   0.17780   0.38570   0.00000  Uiso   1.00
C309   C     0.06900   0.20240   0.29760   0.00000  Uiso   1.00
C310   C     0.11430   0.17780   0.32220   0.00000  Uiso   1.00
C311   C     0.56900   0.20240   0.79760   0.00000  Uiso   1.00
C312   C     0.61430   0.17780   0.82220   0.00000  Uiso   1.00
C313   C     0.06900   0.79760   0.70240   0.00000  Uiso   1.00
C314   C     0.11430   0.82220   0.67780   0.00000  Uiso   1.00
C315   C     0.06900   0.29760   0.20240   0.00000  Uiso   1.00
C316   C     0.11430   0.32220   0.17780   0.00000  Uiso   1.00
C317   C     0.56900   0.79760   0.20240   0.00000  Uiso   1.00
C318   C     0.61430   0.82220   0.17780   0.00000  Uiso   1.00
C319   C     0.93100   0.79760   0.29760   0.00000  Uiso   1.00
C320   C     0.88570   0.82220   0.32220   0.00000  Uiso   1.00
C321   C     0.43100   0.79760   0.79760   0.00000  Uiso   1.00
C322   C     0.38570   0.82220   0.82220   0.00000  Uiso   1.00
C323   C     0.43100   0.29760   0.29760   0.00000  Uiso   1.00
C324   C     0.38570   0.32220   0.32220   0.00000  Uiso   1.00
C325   C     0.93100   0.20240   0.70240   0.00000  Uiso   1.00
C326   C     0.88570   0.17780   0.67780   0.00000  Uiso   1.00
C327   C     0.43100   0.20240   0.20240   0.00000  Uiso   1.00
C328   C     0.38570   0.17780   0.17780   0.00000  Uiso   1.00
C329   C     0.29760   0.06900   0.20240   0.00000  Uiso   1.00
C330   C     0.32220   0.11430   0.17780   0.00000  Uiso   1.00
C331   C     0.29760   0.56900   0.70240   0.00000  Uiso   1.00
C332   C     0.32220   0.61430   0.67780   0.00000  Uiso   1.00
C333   C     0.70240   0.06900   0.79760   0.00000  Uiso   1.00
C334   C     0.67780   0.11430   0.82220   0.00000  Uiso   1.00
C335   C     0.70240   0.56900   0.29760   0.00000  Uiso   1.00
C336   C     0.67780   0.61430   0.32220   0.00000  Uiso   1.00
C337   C     0.20240   0.06900   0.29760   0.00000  Uiso   1.00
C338   C     0.17780   0.11430   0.32220   0.00000  Uiso   1.00
C339   C     0.29760   0.93100   0.79760   0.00000  Uiso   1.00
C340   C     0.32220   0.88570   0.82220   0.00000  Uiso   1.00
C341   C     0.29760   0.43100   0.29760   0.00000  Uiso   1.00
C342   C     0.32220   0.38570   0.32220   0.00000  Uiso   1.00
C343   C     0.70240   0.93100   0.20240   0.00000  Uiso   1.00
C344   C     0.67780   0.88570   0.17780   0.00000  Uiso   1.00
C345   C     0.70240   0.43100   0.70240   0.00000  Uiso   1.00
C346   C     0.67780   0.38570   0.67780   0.00000  Uiso   1.00
C347   C     0.20240   0.43100   0.20240   0.00000  Uiso   1.00
C348   C     0.17780   0.38570   0.17780   0.00000  Uiso   1.00
C349   C     0.29760   0.20240   0.93100   0.00000  Uiso   1.00
C350   C     0.32220   0.17780   0.88570   0.00000  Uiso   1.00
C351   C     0.29760   0.70240   0.43100   0.00000  Uiso   1.00
C352   C     0.32220   0.67780   0.38570   0.00000  Uiso   1.00
C353   C     0.70240   0.79760   0.93100   0.00000  Uiso   1.00
C354   C     0.67780   0.82220   0.88570   0.00000  Uiso   1.00
C355   C     0.70240   0.29760   0.43100   0.00000  Uiso   1.00
C356   C     0.67780   0.32220   0.38570   0.00000  Uiso   1.00
C357   C     0.20240   0.29760   0.93100   0.00000  Uiso   1.00
C358   C     0.17780   0.32220   0.88570   0.00000  Uiso   1.00
C359   C     0.29760   0.79760   0.06900   0.00000  Uiso   1.00
C360   C     0.32220   0.82220   0.11430   0.00000  Uiso   1.00
C361   C     0.29760   0.29760   0.56900   0.00000  Uiso   1.00
C362   C     0.32220   0.32220   0.61430   0.00000  Uiso   1.00
C363   C     0.70240   0.20240   0.06900   0.00000  Uiso   1.00
C364   C     0.67780   0.17780   0.11430   0.00000  Uiso   1.00
C365   C     0.70240   0.70240   0.56900   0.00000  Uiso   1.00
C366   C     0.67780   0.67780   0.61430   0.00000  Uiso   1.00
C367   C     0.20240   0.20240   0.56900   0.00000  Uiso   1.00
C368   C     0.17780   0.17780   0.61430   0.00000  Uiso   1.00
C369   C     0.20240   0.06900   0.70240   0.00000  Uiso   1.00
C370   C     0.17780   0.11430   0.67780   0.00000  Uiso   1.00
C371   C     0.20240   0.56900   0.20240   0.00000  Uiso   1.00
C372   C     0.17780   0.61430   0.17780   0.00000  Uiso   1.00
C373   C     0.79760   0.06900   0.29760   0.00000  Uiso   1.00
C374   C     0.82220   0.11430   0.32220   0.00000  Uiso   1.00
C375   C     0.79760   0.56900   0.79760   0.00000  Uiso   1.00
C376   C     0.82220   0.61430   0.82220   0.00000  Uiso   1.00
C377   C     0.29760   0.56900   0.29760   0.00000  Uiso   1.00
C378   C     0.32220   0.61430   0.32220   0.00000  Uiso   1.00
C379   C     0.79760   0.93100   0.70240   0.00000  Uiso   1.00
C380   C     0.82220   0.88570   0.67780   0.00000  Uiso   1.00
C381   C     0.79760   0.43100   0.20240   0.00000  Uiso   1.00
C382   C     0.82220   0.38570   0.17780   0.00000  Uiso   1.00
C383   C     0.29760   0.93100   0.20240   0.00000  Uiso   1.00
C384   C     0.32220   0.88570   0.17780   0.00000  Uiso   1.00
C385   C     0.20240   0.93100   0.29760   0.00000  Uiso   1.00
C386   C     0.17780   0.88570   0.32220   0.00000  Uiso   1.00
C387   C     0.20240   0.43100   0.79760   0.00000  Uiso   1.00
C388   C     0.17780   0.38570   0.82220   0.00000  Uiso   1.00
C389   C     0.06900   0.29760   0.79760   0.00000  Uiso   1.00
C390   C     0.11430   0.32220   0.82220   0.00000  Uiso   1.00
C391   C     0.56900   0.29760   0.29760   0.00000  Uiso   1.00
C392   C     0.61430   0.32220   0.32220   0.00000  Uiso   1.00
C393   C     0.06900   0.70240   0.20240   0.00000  Uiso   1.00
C394   C     0.11430   0.67780   0.17780   0.00000  Uiso   1.00
C395   C     0.56900   0.70240   0.70240   0.00000  Uiso   1.00
C396   C     0.61430   0.67780   0.67780   0.00000  Uiso   1.00
C397   C     0.56900   0.20240   0.20240   0.00000  Uiso   1.00
C398   C     0.61430   0.17780   0.17780   0.00000  Uiso   1.00
C399   C     0.93100   0.29760   0.20240   0.00000  Uiso   1.00
C400   C     0.88570   0.32220   0.17780   0.00000  Uiso   1.00
C401   C     0.43100   0.29760   0.70240   0.00000  Uiso   1.00
C402   C     0.38570   0.32220   0.67780   0.00000  Uiso   1.00
C403   C     0.93100   0.70240   0.79760   0.00000  Uiso   1.00
C404   C     0.88570   0.67780   0.82220   0.00000  Uiso   1.00
C405   C     0.93100   0.20240   0.29760   0.00000  Uiso   1.00
C406   C     0.88570   0.17780   0.32220   0.00000  Uiso   1.00
C407   C     0.43100   0.70240   0.29760   0.00000  Uiso   1.00
C408   C     0.38570   0.67780   0.32220   0.00000  Uiso   1.00
C409   C     0.79760   0.70240   0.93100   0.00000  Uiso   1.00
C410   C     0.82220   0.67780   0.88570   0.00000  Uiso   1.00
C411   C     0.79760   0.20240   0.43100   0.00000  Uiso   1.00
C412   C     0.82220   0.17780   0.38570   0.00000  Uiso   1.00
C413   C     0.20240   0.79760   0.43100   0.00000  Uiso   1.00
C414   C     0.17780   0.82220   0.38570   0.00000  Uiso   1.00
C415   C     0.20240   0.70240   0.06900   0.00000  Uiso   1.00
C416   C     0.17780   0.67780   0.11430   0.00000  Uiso   1.00
C417   C     0.79760   0.29760   0.06900   0.00000  Uiso   1.00
C418   C     0.82220   0.32220   0.11430   0.00000  Uiso   1.00
C419   C     0.79760   0.79760   0.56900   0.00000  Uiso   1.00
C420   C     0.82220   0.82220   0.61430   0.00000  Uiso   1.00
C421   C     0.93100   0.79760   0.70240   0.00000  Uiso   1.00
C422   C     0.88570   0.82220   0.67780   0.00000  Uiso   1.00
C423   C     0.43100   0.79760   0.20240   0.00000  Uiso   1.00
C424   C     0.38570   0.82220   0.17780   0.00000  Uiso   1.00
C425   C     0.43100   0.20240   0.79760   0.00000  Uiso   1.00
C426   C     0.38570   0.17780   0.82220   0.00000  Uiso   1.00
C427   C     0.06900   0.20240   0.70240   0.00000  Uiso   1.00
C428   C     0.11430   0.17780   0.67780   0.00000  Uiso   1.00
C429   C     0.06900   0.79760   0.29760   0.00000  Uiso   1.00
C430   C     0.11430   0.82220   0.32220   0.00000  Uiso   1.00
C431   C     0.56900   0.79760   0.79760   0.00000  Uiso   1.00
C432   C     0.61430   0.82220   0.82220   0.00000  Uiso   1.00
C433   C     0.70240   0.93100   0.79760   0.00000  Uiso   1.00
C434   C     0.67780   0.88570   0.82220   0.00000  Uiso   1.00
C435   C     0.70240   0.43100   0.29760   0.00000  Uiso   1.00
C436   C     0.67780   0.38570   0.32220   0.00000  Uiso   1.00
C437   C     0.29760   0.43100   0.70240   0.00000  Uiso   1.00
C438   C     0.32220   0.38570   0.67780   0.00000  Uiso   1.00
C439   C     0.70240   0.06900   0.20240   0.00000  Uiso   1.00
C440   C     0.67780   0.11430   0.17780   0.00000  Uiso   1.00
C441   C     0.70240   0.56900   0.70240   0.00000  Uiso   1.00
C442   C     0.67780   0.61430   0.67780   0.00000  Uiso   1.00
C443   C     0.29760   0.06900   0.79760   0.00000  Uiso   1.00
C444   C     0.32220   0.11430   0.82220   0.00000  Uiso   1.00
C445   C     0.70240   0.79760   0.06900   0.00000  Uiso   1.00
C446   C     0.67780   0.82220   0.11430   0.00000  Uiso   1.00
C447   C     0.70240   0.29760   0.56900   0.00000  Uiso   1.00
C448   C     0.67780   0.32220   0.61430   0.00000  Uiso   1.00
C449   C     0.29760   0.70240   0.56900   0.00000  Uiso   1.00
C450   C     0.32220   0.67780   0.61430   0.00000  Uiso   1.00
C451   C     0.70240   0.20240   0.93100   0.00000  Uiso   1.00
C452   C     0.67780   0.17780   0.88570   0.00000  Uiso   1.00
C453   C     0.70240   0.70240   0.43100   0.00000  Uiso   1.00
C454   C     0.67780   0.67780   0.38570   0.00000  Uiso   1.00
C455   C     0.29760   0.79760   0.93100   0.00000  Uiso   1.00
C456   C     0.32220   0.82220   0.88570   0.00000  Uiso   1.00
C457   C     0.79760   0.93100   0.29760   0.00000  Uiso   1.00
C458   C     0.82220   0.88570   0.32220   0.00000  Uiso   1.00
C459   C     0.79760   0.43100   0.79760   0.00000  Uiso   1.00
C460   C     0.82220   0.38570   0.82220   0.00000  Uiso   1.00
C461   C     0.20240   0.93100   0.70240   0.00000  Uiso   1.00
C462   C     0.17780   0.88570   0.67780   0.00000  Uiso   1.00
C463   C     0.20240   0.56900   0.79760   0.00000  Uiso   1.00
C464   C     0.17780   0.61430   0.82220   0.00000  Uiso   1.00
C465   C     0.79760   0.06900   0.70240   0.00000  Uiso   1.00
C466   C     0.82220   0.11430   0.67780   0.00000  Uiso   1.00
C467   C     0.79760   0.56900   0.20240   0.00000  Uiso   1.00
C468   C     0.82220   0.61430   0.17780   0.00000  Uiso   1.00
C469   C     0.93100   0.70240   0.20240   0.00000  Uiso   1.00
C470   C     0.88570   0.67780   0.17780   0.00000  Uiso   1.00
C471   C     0.43100   0.70240   0.70240   0.00000  Uiso   1.00
C472   C     0.38570   0.67780   0.67780   0.00000  Uiso   1.00
C473   C     0.93100   0.29760   0.79760   0.00000  Uiso   1.00
C474   C     0.88570   0.32220   0.82220   0.00000  Uiso   1.00
C475   C     0.06900   0.70240   0.79760   0.00000  Uiso   1.00
C476   C     0.11430   0.67780   0.82220   0.00000  Uiso   1.00
C477   C     0.56900   0.70240   0.29760   0.00000  Uiso   1.00
C478   C     0.61430   0.67780   0.32220   0.00000  Uiso   1.00
C479   C     0.56900   0.29760   0.70240   0.00000  Uiso   1.00
C480   C     0.61430   0.32220   0.67780   0.00000  Uiso   1.00
C481   C     0.19840   0.36500   0.13500   0.00000  Uiso   1.00
H482   H     0.22630   0.37980   0.12020   0.00000  Uiso   1.00
C483   C     0.69840   0.36500   0.63500   0.00000  Uiso   1.00
H484   H     0.72630   0.37980   0.62020   0.00000  Uiso   1.00
C485   C     0.80160   0.63500   0.13500   0.00000  Uiso   1.00
H486   H     0.77370   0.62020   0.12020   0.00000  Uiso   1.00
C487   C     0.30160   0.63500   0.63500   0.00000  Uiso   1.00
H488   H     0.27370   0.62020   0.62020   0.00000  Uiso   1.00
C489   C     0.30160   0.13500   0.13500   0.00000  Uiso   1.00
H490   H     0.27370   0.12020   0.12020   0.00000  Uiso   1.00
C491   C     0.80160   0.36500   0.86500   0.00000  Uiso   1.00
H492   H     0.77370   0.37980   0.87980   0.00000  Uiso   1.00
C493   C     0.30160   0.36500   0.36500   0.00000  Uiso   1.00
H494   H     0.27370   0.37980   0.37980   0.00000  Uiso   1.00
C495   C     0.19840   0.63500   0.86500   0.00000  Uiso   1.00
H496   H     0.22630   0.62020   0.87980   0.00000  Uiso   1.00
C497   C     0.19840   0.13500   0.36500   0.00000  Uiso   1.00
H498   H     0.22630   0.12020   0.37980   0.00000  Uiso   1.00
C499   C     0.69840   0.63500   0.36500   0.00000  Uiso   1.00
H500   H     0.72630   0.62020   0.37980   0.00000  Uiso   1.00
C501   C     0.13500   0.19840   0.36500   0.00000  Uiso   1.00
H502   H     0.12020   0.22630   0.37980   0.00000  Uiso   1.00
C503   C     0.13500   0.69840   0.86500   0.00000  Uiso   1.00
H504   H     0.12020   0.72630   0.87980   0.00000  Uiso   1.00
C505   C     0.13500   0.80160   0.63500   0.00000  Uiso   1.00
H506   H     0.12020   0.77370   0.62020   0.00000  Uiso   1.00
C507   C     0.13500   0.30160   0.13500   0.00000  Uiso   1.00
H508   H     0.12020   0.27370   0.12020   0.00000  Uiso   1.00
C509   C     0.86500   0.80160   0.36500   0.00000  Uiso   1.00
H510   H     0.87980   0.77370   0.37980   0.00000  Uiso   1.00
C511   C     0.86500   0.30160   0.86500   0.00000  Uiso   1.00
H512   H     0.87980   0.27370   0.87980   0.00000  Uiso   1.00
C513   C     0.36500   0.30160   0.36500   0.00000  Uiso   1.00
H514   H     0.37980   0.27370   0.37980   0.00000  Uiso   1.00
C515   C     0.86500   0.19840   0.63500   0.00000  Uiso   1.00
H516   H     0.87980   0.22630   0.62020   0.00000  Uiso   1.00
C517   C     0.86500   0.69840   0.13500   0.00000  Uiso   1.00
H518   H     0.87980   0.72630   0.12020   0.00000  Uiso   1.00
C519   C     0.36500   0.19840   0.13500   0.00000  Uiso   1.00
H520   H     0.37980   0.22630   0.12020   0.00000  Uiso   1.00
C521   C     0.36500   0.13500   0.19840   0.00000  Uiso   1.00
H522   H     0.37980   0.12020   0.22630   0.00000  Uiso   1.00
C523   C     0.36500   0.63500   0.69840   0.00000  Uiso   1.00
H524   H     0.37980   0.62020   0.72630   0.00000  Uiso   1.00
C525   C     0.63500   0.13500   0.80160   0.00000  Uiso   1.00
H526   H     0.62020   0.12020   0.77370   0.00000  Uiso   1.00
C527   C     0.63500   0.63500   0.30160   0.00000  Uiso   1.00
H528   H     0.62020   0.62020   0.27370   0.00000  Uiso   1.00
C529   C     0.13500   0.13500   0.30160   0.00000  Uiso   1.00
H530   H     0.12020   0.12020   0.27370   0.00000  Uiso   1.00
C531   C     0.36500   0.86500   0.80160   0.00000  Uiso   1.00
H532   H     0.37980   0.87980   0.77370   0.00000  Uiso   1.00
C533   C     0.36500   0.36500   0.30160   0.00000  Uiso   1.00
H534   H     0.37980   0.37980   0.27370   0.00000  Uiso   1.00
C535   C     0.63500   0.86500   0.19840   0.00000  Uiso   1.00
H536   H     0.62020   0.87980   0.22630   0.00000  Uiso   1.00
C537   C     0.63500   0.36500   0.69840   0.00000  Uiso   1.00
H538   H     0.62020   0.37980   0.72630   0.00000  Uiso   1.00
C539   C     0.13500   0.36500   0.19840   0.00000  Uiso   1.00
H540   H     0.12020   0.37980   0.22630   0.00000  Uiso   1.00
C541   C     0.36500   0.19840   0.86500   0.00000  Uiso   1.00
H542   H     0.37980   0.22630   0.87980   0.00000  Uiso   1.00
C543   C     0.36500   0.69840   0.36500   0.00000  Uiso   1.00
H544   H     0.37980   0.72630   0.37980   0.00000  Uiso   1.00
C545   C     0.63500   0.80160   0.86500   0.00000  Uiso   1.00
H546   H     0.62020   0.77370   0.87980   0.00000  Uiso   1.00
C547   C     0.63500   0.30160   0.36500   0.00000  Uiso   1.00
H548   H     0.62020   0.27370   0.37980   0.00000  Uiso   1.00
C549   C     0.13500   0.80160   0.36500   0.00000  Uiso   1.00
H550   H     0.12020   0.77370   0.37980   0.00000  Uiso   1.00
C551   C     0.36500   0.80160   0.13500   0.00000  Uiso   1.00
H552   H     0.37980   0.77370   0.12020   0.00000  Uiso   1.00
C553   C     0.36500   0.30160   0.63500   0.00000  Uiso   1.00
H554   H     0.37980   0.27370   0.62020   0.00000  Uiso   1.00
C555   C     0.63500   0.19840   0.13500   0.00000  Uiso   1.00
H556   H     0.62020   0.22630   0.12020   0.00000  Uiso   1.00
C557   C     0.63500   0.69840   0.63500   0.00000  Uiso   1.00
H558   H     0.62020   0.72630   0.62020   0.00000  Uiso   1.00
C559   C     0.13500   0.69840   0.13500   0.00000  Uiso   1.00
H560   H     0.12020   0.72630   0.12020   0.00000  Uiso   1.00
C561   C     0.19840   0.13500   0.63500   0.00000  Uiso   1.00
H562   H     0.22630   0.12020   0.62020   0.00000  Uiso   1.00
C563   C     0.69840   0.13500   0.13500   0.00000  Uiso   1.00
H564   H     0.72630   0.12020   0.12020   0.00000  Uiso   1.00
C565   C     0.80160   0.13500   0.36500   0.00000  Uiso   1.00
H566   H     0.77370   0.12020   0.37980   0.00000  Uiso   1.00
C567   C     0.30160   0.13500   0.86500   0.00000  Uiso   1.00
H568   H     0.27370   0.12020   0.87980   0.00000  Uiso   1.00
C569   C     0.80160   0.86500   0.63500   0.00000  Uiso   1.00
H570   H     0.77370   0.87980   0.62020   0.00000  Uiso   1.00
C571   C     0.80160   0.36500   0.13500   0.00000  Uiso   1.00
H572   H     0.77370   0.37980   0.12020   0.00000  Uiso   1.00
C573   C     0.30160   0.86500   0.13500   0.00000  Uiso   1.00
H574   H     0.27370   0.87980   0.12020   0.00000  Uiso   1.00
C575   C     0.19840   0.86500   0.36500   0.00000  Uiso   1.00
H576   H     0.22630   0.87980   0.37980   0.00000  Uiso   1.00
C577   C     0.69840   0.86500   0.86500   0.00000  Uiso   1.00
H578   H     0.72630   0.87980   0.87980   0.00000  Uiso   1.00
C579   C     0.69840   0.36500   0.36500   0.00000  Uiso   1.00
H580   H     0.72630   0.37980   0.37980   0.00000  Uiso   1.00
C581   C     0.13500   0.36500   0.80160   0.00000  Uiso   1.00
H582   H     0.12020   0.37980   0.77370   0.00000  Uiso   1.00
C583   C     0.13500   0.86500   0.30160   0.00000  Uiso   1.00
H584   H     0.12020   0.87980   0.27370   0.00000  Uiso   1.00
C585   C     0.13500   0.63500   0.19840   0.00000  Uiso   1.00
H586   H     0.12020   0.62020   0.22630   0.00000  Uiso   1.00
C587   C     0.13500   0.13500   0.69840   0.00000  Uiso   1.00
H588   H     0.12020   0.12020   0.72630   0.00000  Uiso   1.00
C589   C     0.86500   0.36500   0.19840   0.00000  Uiso   1.00
H590   H     0.87980   0.37980   0.22630   0.00000  Uiso   1.00
C591   C     0.86500   0.86500   0.69840   0.00000  Uiso   1.00
H592   H     0.87980   0.87980   0.72630   0.00000  Uiso   1.00
C593   C     0.36500   0.36500   0.69840   0.00000  Uiso   1.00
H594   H     0.37980   0.37980   0.72630   0.00000  Uiso   1.00
C595   C     0.86500   0.63500   0.80160   0.00000  Uiso   1.00
H596   H     0.87980   0.62020   0.77370   0.00000  Uiso   1.00
C597   C     0.86500   0.13500   0.30160   0.00000  Uiso   1.00
H598   H     0.87980   0.12020   0.27370   0.00000  Uiso   1.00
C599   C     0.36500   0.13500   0.80160   0.00000  Uiso   1.00
H600   H     0.37980   0.12020   0.77370   0.00000  Uiso   1.00
C601   C     0.80160   0.63500   0.86500   0.00000  Uiso   1.00
H602   H     0.77370   0.62020   0.87980   0.00000  Uiso   1.00
C603   C     0.30160   0.63500   0.36500   0.00000  Uiso   1.00
H604   H     0.27370   0.62020   0.37980   0.00000  Uiso   1.00
C605   C     0.19840   0.36500   0.86500   0.00000  Uiso   1.00
H606   H     0.22630   0.37980   0.87980   0.00000  Uiso   1.00
C607   C     0.19840   0.63500   0.13500   0.00000  Uiso   1.00
H608   H     0.22630   0.62020   0.12020   0.00000  Uiso   1.00
C609   C     0.69840   0.63500   0.63500   0.00000  Uiso   1.00
H610   H     0.72630   0.62020   0.62020   0.00000  Uiso   1.00
C611   C     0.30160   0.36500   0.63500   0.00000  Uiso   1.00
H612   H     0.27370   0.37980   0.62020   0.00000  Uiso   1.00
C613   C     0.86500   0.80160   0.63500   0.00000  Uiso   1.00
H614   H     0.87980   0.77370   0.62020   0.00000  Uiso   1.00
C615   C     0.86500   0.30160   0.13500   0.00000  Uiso   1.00
H616   H     0.87980   0.27370   0.12020   0.00000  Uiso   1.00
C617   C     0.86500   0.19840   0.36500   0.00000  Uiso   1.00
H618   H     0.87980   0.22630   0.37980   0.00000  Uiso   1.00
C619   C     0.86500   0.69840   0.86500   0.00000  Uiso   1.00
H620   H     0.87980   0.72630   0.87980   0.00000  Uiso   1.00
C621   C     0.13500   0.19840   0.63500   0.00000  Uiso   1.00
H622   H     0.12020   0.22630   0.62020   0.00000  Uiso   1.00
C623   C     0.13500   0.30160   0.86500   0.00000  Uiso   1.00
H624   H     0.12020   0.27370   0.87980   0.00000  Uiso   1.00
C625   C     0.63500   0.86500   0.80160   0.00000  Uiso   1.00
H626   H     0.62020   0.87980   0.77370   0.00000  Uiso   1.00
C627   C     0.63500   0.36500   0.30160   0.00000  Uiso   1.00
H628   H     0.62020   0.37980   0.27370   0.00000  Uiso   1.00
C629   C     0.36500   0.86500   0.19840   0.00000  Uiso   1.00
H630   H     0.37980   0.87980   0.22630   0.00000  Uiso   1.00
C631   C     0.63500   0.13500   0.19840   0.00000  Uiso   1.00
H632   H     0.62020   0.12020   0.22630   0.00000  Uiso   1.00
C633   C     0.63500   0.63500   0.69840   0.00000  Uiso   1.00
H634   H     0.62020   0.62020   0.72630   0.00000  Uiso   1.00
C635   C     0.36500   0.63500   0.30160   0.00000  Uiso   1.00
H636   H     0.37980   0.62020   0.27370   0.00000  Uiso   1.00
C637   C     0.63500   0.80160   0.13500   0.00000  Uiso   1.00
H638   H     0.62020   0.77370   0.12020   0.00000  Uiso   1.00
C639   C     0.63500   0.30160   0.63500   0.00000  Uiso   1.00
H640   H     0.62020   0.27370   0.62020   0.00000  Uiso   1.00
C641   C     0.36500   0.69840   0.63500   0.00000  Uiso   1.00
H642   H     0.37980   0.72630   0.62020   0.00000  Uiso   1.00
C643   C     0.63500   0.19840   0.86500   0.00000  Uiso   1.00
H644   H     0.62020   0.22630   0.87980   0.00000  Uiso   1.00
C645   C     0.63500   0.69840   0.36500   0.00000  Uiso   1.00
H646   H     0.62020   0.72630   0.37980   0.00000  Uiso   1.00
C647   C     0.36500   0.80160   0.86500   0.00000  Uiso   1.00
H648   H     0.37980   0.77370   0.87980   0.00000  Uiso   1.00
C649   C     0.80160   0.86500   0.36500   0.00000  Uiso   1.00
H650   H     0.77370   0.87980   0.37980   0.00000  Uiso   1.00
C651   C     0.30160   0.86500   0.86500   0.00000  Uiso   1.00
H652   H     0.27370   0.87980   0.87980   0.00000  Uiso   1.00
C653   C     0.19840   0.86500   0.63500   0.00000  Uiso   1.00
H654   H     0.22630   0.87980   0.62020   0.00000  Uiso   1.00
C655   C     0.69840   0.86500   0.13500   0.00000  Uiso   1.00
H656   H     0.72630   0.87980   0.12020   0.00000  Uiso   1.00
C657   C     0.69840   0.13500   0.86500   0.00000  Uiso   1.00
H658   H     0.72630   0.12020   0.87980   0.00000  Uiso   1.00
C659   C     0.80160   0.13500   0.63500   0.00000  Uiso   1.00
H660   H     0.77370   0.12020   0.62020   0.00000  Uiso   1.00
C661   C     0.86500   0.63500   0.19840   0.00000  Uiso   1.00
H662   H     0.87980   0.62020   0.22630   0.00000  Uiso   1.00
C663   C     0.86500   0.13500   0.69840   0.00000  Uiso   1.00
H664   H     0.87980   0.12020   0.72630   0.00000  Uiso   1.00
C665   C     0.86500   0.36500   0.80160   0.00000  Uiso   1.00
H666   H     0.87980   0.37980   0.77370   0.00000  Uiso   1.00
C667   C     0.86500   0.86500   0.30160   0.00000  Uiso   1.00
H668   H     0.87980   0.87980   0.27370   0.00000  Uiso   1.00
C669   C     0.13500   0.63500   0.80160   0.00000  Uiso   1.00
H670   H     0.12020   0.62020   0.77370   0.00000  Uiso   1.00
C671   C     0.13500   0.86500   0.69840   0.00000  Uiso   1.00
H672   H     0.12020   0.87980   0.72630   0.00000  Uiso   1.00
loop_
_geom_bond_atom_site_label_1
_geom_bond_atom_site_label_2
_geom_bond_distance
_geom_bond_site_symmetry_2
_ccdc_geom_bond_type
O1     Co193   2.027   .     S
O1     C289    1.263   .     S
O2     Co195   2.027   .     S
O2     C291    1.263   .     S
O3     Co197   2.027   .     S
O3     C447    1.263   .     S
O4     Co199   2.027   .     S
O4     C445    1.263   .     S
O5     Co201   2.027   .     S
O5     C293    1.263   .     S
O6     Co203   2.027   .     S
O6     C295    1.263   .     S
O7     Co205   2.027   .     S
O7     C449    1.263   .     S
O8     Co207   2.027   .     S
O8     C297    1.263   .     S
O9     Co209   2.027   1_556 S
O9     C299    1.263   .     S
O10    Co211   2.027   .     S
O10    C301    1.263   .     S
O11    Co213   2.027   .     S
O11    C303    1.263   .     S
O12    Co215   2.027   1_556 S
O12    C455    1.263   .     S
O13    Co217   2.027   1_556 S
O13    C305    1.263   .     S
O14    Co219   2.027   .     S
O14    C307    1.263   .     S
O15    Co221   2.027   .     S
O15    C453    1.263   .     S
O16    Co223   2.027   1_556 S
O16    C451    1.263   .     S
O17    Co225   2.027   .     S
O17    C309    1.263   .     S
O18    Co227   2.027   .     S
O18    C475    1.263   .     S
O19    Co229   2.027   .     S
O19    C311    1.263   .     S
O20    Co231   2.027   .     S
O20    C477    1.263   .     S
O21    Co233   2.027   .     S
O21    C313    1.263   .     S
O22    Co235   2.027   .     S
O22    C315    1.263   .     S
O23    Co237   2.027   .     S
O23    C317    1.263   .     S
O24    Co239   2.027   .     S
O24    C479    1.263   .     S
O25    Co241   2.027   1_655 S
O25    C319    1.263   .     S
O26    Co243   2.027   1_655 S
O26    C473    1.263   .     S
O27    Co245   2.027   .     S
O27    C321    1.263   .     S
O28    Co247   2.027   .     S
O28    C323    1.263   .     S
O29    Co249   2.027   1_655 S
O29    C325    1.263   .     S
O30    Co251   2.027   1_655 S
O30    C469    1.263   .     S
O31    Co253   2.027   .     S
O31    C327    1.263   .     S
O32    Co255   2.027   .     S
O32    C471    1.263   .     S
O33    Co257   2.027   .     S
O33    C329    1.263   .     S
O34    Co259   2.027   .     S
O34    C331    1.263   .     S
O35    Co261   2.027   .     S
O35    C465    1.263   .     S
O36    Co263   2.027   .     S
O36    C467    1.263   .     S
O37    Co265   2.027   .     S
O37    C333    1.263   .     S
O38    Co267   2.027   .     S
O38    C335    1.263   .     S
O39    Co269   2.027   .     S
O39    C337    1.263   .     S
O40    Co271   2.027   .     S
O40    C463    1.263   .     S
O41    Co273   2.027   1_565 S
O41    C339    1.263   .     S
O42    Co275   2.027   .     S
O42    C341    1.263   .     S
O43    Co277   2.027   1_565 S
O43    C457    1.263   .     S
O44    Co279   2.027   .     S
O44    C459    1.263   .     S
O45    Co281   2.027   1_565 S
O45    C343    1.263   .     S
O46    Co283   2.027   .     S
O46    C345    1.263   .     S
O47    Co285   2.027   1_565 S
O47    C461    1.263   .     S
O48    Co287   2.027   .     S
O48    C347    1.263   .     S
O49    Co193   2.027   1_556 S
O49    C349    1.263   .     S
O50    Co195   2.027   .     S
O50    C351    1.263   .     S
O51    Co197   2.027   .     S
O51    C411    1.263   .     S
O52    Co199   2.027   1_556 S
O52    C409    1.263   .     S
O53    Co201   2.027   1_556 S
O53    C353    1.263   .     S
O54    Co203   2.027   .     S
O54    C355    1.263   .     S
O55    Co205   2.027   .     S
O55    C413    1.263   .     S
O56    Co207   2.027   1_556 S
O56    C357    1.263   .     S
O57    Co217   2.027   .     S
O57    C359    1.263   .     S
O58    Co219   2.027   .     S
O58    C361    1.263   .     S
O59    Co221   2.027   .     S
O59    C419    1.263   .     S
O60    Co223   2.027   .     S
O60    C417    1.263   .     S
O61    Co209   2.027   .     S
O61    C363    1.263   .     S
O62    Co211   2.027   .     S
O62    C365    1.263   .     S
O63    Co213   2.027   .     S
O63    C367    1.263   .     S
O64    Co215   2.027   .     S
O64    C415    1.263   .     S
O65    Co273   2.027   .     S
O65    C369    1.263   .     S
O66    Co275   2.027   .     S
O66    C371    1.263   .     S
O67    Co277   2.027   .     S
O67    C439    1.263   .     S
O68    Co279   2.027   .     S
O68    C441    1.263   .     S
O69    Co281   2.027   .     S
O69    C373    1.263   .     S
O70    Co283   2.027   .     S
O70    C375    1.263   .     S
O71    Co285   2.027   .     S
O71    C443    1.263   .     S
O72    Co287   2.027   .     S
O72    C377    1.263   .     S
O73    Co265   2.027   1_565 S
O73    C379    1.263   .     S
O74    Co267   2.027   .     S
O74    C381    1.263   .     S
O75    Co269   2.027   1_565 S
O75    C383    1.263   .     S
O76    Co271   2.027   .     S
O76    C437    1.263   .     S
O77    Co257   2.027   1_565 S
O77    C385    1.263   .     S
O78    Co259   2.027   .     S
O78    C387    1.263   .     S
O79    Co261   2.027   1_565 S
O79    C433    1.263   .     S
O80    Co263   2.027   .     S
O80    C435    1.263   .     S
O81    Co249   2.027   .     S
O81    C389    1.263   .     S
O82    Co251   2.027   .     S
O82    C429    1.263   .     S
O83    Co253   2.027   .     S
O83    C391    1.263   .     S
O84    Co255   2.027   .     S
O84    C431    1.263   .     S
O85    Co241   2.027   .     S
O85    C393    1.263   .     S
O86    Co243   2.027   .     S
O86    C427    1.263   .     S
O87    Co245   2.027   .     S
O87    C395    1.263   .     S
O88    Co247   2.027   .     S
O88    C397    1.263   .     S
O89    Co225   2.027   1_655 S
O89    C399    1.263   .     S
O90    Co227   2.027   1_655 S
O90    C421    1.263   .     S
O91    Co229   2.027   .     S
O91    C401    1.263   .     S
O92    Co231   2.027   .     S
O92    C423    1.263   .     S
O93    Co233   2.027   1_655 S
O93    C403    1.263   .     S
O94    Co235   2.027   1_655 S
O94    C405    1.263   .     S
O95    Co237   2.027   .     S
O95    C407    1.263   .     S
O96    Co239   2.027   .     S
O96    C425    1.263   .     S
O97    Co201   2.027   1_556 S
O97    C409    1.263   .     S
O98    Co203   2.027   .     S
O98    C411    1.263   .     S
O99    Co205   2.027   .     S
O99    C351    1.263   .     S
O100   Co207   2.027   1_556 S
O100   C349    1.263   .     S
O101   Co193   2.027   1_556 S
O101   C357    1.263   .     S
O102   Co195   2.027   .     S
O102   C413    1.263   .     S
O103   Co197   2.027   .     S
O103   C355    1.263   .     S
O104   Co199   2.027   1_556 S
O104   C353    1.263   .     S
O105   Co217   2.027   .     S
O105   C415    1.263   .     S
O106   Co219   2.027   .     S
O106   C367    1.263   .     S
O107   Co221   2.027   .     S
O107   C365    1.263   .     S
O108   Co223   2.027   .     S
O108   C363    1.263   .     S
O109   Co209   2.027   .     S
O109   C417    1.263   .     S
O110   Co211   2.027   .     S
O110   C419    1.263   .     S
O111   Co213   2.027   .     S
O111   C361    1.263   .     S
O112   Co215   2.027   .     S
O112   C359    1.263   .     S
O113   Co233   2.027   1_655 S
O113   C421    1.263   .     S
O114   Co235   2.027   1_655 S
O114   C399    1.263   .     S
O115   Co237   2.027   .     S
O115   C423    1.263   .     S
O116   Co239   2.027   .     S
O116   C401    1.263   .     S
O117   Co225   2.027   1_655 S
O117   C405    1.263   .     S
O118   Co227   2.027   1_655 S
O118   C403    1.263   .     S
O119   Co229   2.027   .     S
O119   C425    1.263   .     S
O120   Co231   2.027   .     S
O120   C407    1.263   .     S
O121   Co249   2.027   .     S
O121   C427    1.263   .     S
O122   Co251   2.027   .     S
O122   C393    1.263   .     S
O123   Co253   2.027   .     S
O123   C397    1.263   .     S
O124   Co255   2.027   .     S
O124   C395    1.263   .     S
O125   Co241   2.027   .     S
O125   C429    1.263   .     S
O126   Co243   2.027   .     S
O126   C389    1.263   .     S
O127   Co245   2.027   .     S
O127   C431    1.263   .     S
O128   Co247   2.027   .     S
O128   C391    1.263   .     S
O129   Co265   2.027   1_565 S
O129   C433    1.263   .     S
O130   Co267   2.027   .     S
O130   C435    1.263   .     S
O131   Co269   2.027   1_565 S
O131   C385    1.263   .     S
O132   Co271   2.027   .     S
O132   C387    1.263   .     S
O133   Co257   2.027   1_565 S
O133   C383    1.263   .     S
O134   Co259   2.027   .     S
O134   C437    1.263   .     S
O135   Co261   2.027   1_565 S
O135   C379    1.263   .     S
O136   Co263   2.027   .     S
O136   C381    1.263   .     S
O137   Co281   2.027   .     S
O137   C439    1.263   .     S
O138   Co283   2.027   .     S
O138   C441    1.263   .     S
O139   Co285   2.027   .     S
O139   C369    1.263   .     S
O140   Co287   2.027   .     S
O140   C371    1.263   .     S
O141   Co273   2.027   .     S
O141   C443    1.263   .     S
O142   Co275   2.027   .     S
O142   C377    1.263   .     S
O143   Co277   2.027   .     S
O143   C373    1.263   .     S
O144   Co279   2.027   .     S
O144   C375    1.263   .     S
O145   Co201   2.027   .     S
O145   C445    1.263   .     S
O146   Co203   2.027   .     S
O146   C447    1.263   .     S
O147   Co205   2.027   .     S
O147   C291    1.263   .     S
O148   Co207   2.027   .     S
O148   C289    1.263   .     S
O149   Co193   2.027   .     S
O149   C297    1.263   .     S
O150   Co195   2.027   .     S
O150   C449    1.263   .     S
O151   Co197   2.027   .     S
O151   C295    1.263   .     S
O152   Co199   2.027   .     S
O152   C293    1.263   .     S
O153   Co209   2.027   1_556 S
O153   C451    1.263   .     S
O154   Co211   2.027   .     S
O154   C453    1.263   .     S
O155   Co213   2.027   .     S
O155   C307    1.263   .     S
O156   Co215   2.027   1_556 S
O156   C305    1.263   .     S
O157   Co217   2.027   1_556 S
O157   C455    1.263   .     S
O158   Co219   2.027   .     S
O158   C303    1.263   .     S
O159   Co221   2.027   .     S
O159   C301    1.263   .     S
O160   Co223   2.027   1_556 S
O160   C299    1.263   .     S
O161   Co281   2.027   1_565 S
O161   C457    1.263   .     S
O162   Co283   2.027   .     S
O162   C459    1.263   .     S
O163   Co285   2.027   1_565 S
O163   C339    1.263   .     S
O164   Co287   2.027   .     S
O164   C341    1.263   .     S
O165   Co273   2.027   1_565 S
O165   C461    1.263   .     S
O166   Co275   2.027   .     S
O166   C347    1.263   .     S
O167   Co277   2.027   1_565 S
O167   C343    1.263   .     S
O168   Co279   2.027   .     S
O168   C345    1.263   .     S
O169   Co257   2.027   .     S
O169   C337    1.263   .     S
O170   Co259   2.027   .     S
O170   C463    1.263   .     S
O171   Co261   2.027   .     S
O171   C333    1.263   .     S
O172   Co263   2.027   .     S
O172   C335    1.263   .     S
O173   Co265   2.027   .     S
O173   C465    1.263   .     S
O174   Co267   2.027   .     S
O174   C467    1.263   .     S
O175   Co269   2.027   .     S
O175   C329    1.263   .     S
O176   Co271   2.027   .     S
O176   C331    1.263   .     S
O177   Co241   2.027   1_655 S
O177   C469    1.263   .     S
O178   Co243   2.027   1_655 S
O178   C325    1.263   .     S
O179   Co245   2.027   .     S
O179   C471    1.263   .     S
O180   Co247   2.027   .     S
O180   C327    1.263   .     S
O181   Co249   2.027   1_655 S
O181   C473    1.263   .     S
O182   Co251   2.027   1_655 S
O182   C319    1.263   .     S
O183   Co253   2.027   .     S
O183   C323    1.263   .     S
O184   Co255   2.027   .     S
O184   C321    1.263   .     S
O185   Co233   2.027   .     S
O185   C475    1.263   .     S
O186   Co235   2.027   .     S
O186   C309    1.263   .     S
O187   Co237   2.027   .     S
O187   C477    1.263   .     S
O188   Co239   2.027   .     S
O188   C311    1.263   .     S
O189   Co225   2.027   .     S
O189   C315    1.263   .     S
O190   Co227   2.027   .     S
O190   C313    1.263   .     S
O191   Co229   2.027   .     S
O191   C479    1.263   .     S
O192   Co231   2.027   .     S
O192   C317    1.263   .     S
Co193  Cl194   2.285   .     S
Co193  O49     2.027   1_554 S
Co193  O101    2.027   1_554 S
Co195  Cl196   2.285   .     S
Co197  Cl198   2.285   .     S
Co199  Cl200   2.285   .     S
Co199  O52     2.027   1_554 S
Co199  O104    2.027   1_554 S
Co201  Cl202   2.285   .     S
Co201  O53     2.027   1_554 S
Co201  O97     2.027   1_554 S
Co203  Cl204   2.285   .     S
Co205  Cl206   2.285   .     S
Co207  Cl208   2.285   .     S
Co207  O56     2.027   1_554 S
Co207  O100    2.027   1_554 S
Co209  Cl210   2.285   .     S
Co209  O9      2.027   1_554 S
Co209  O153    2.027   1_554 S
Co211  Cl212   2.285   .     S
Co213  Cl214   2.285   .     S
Co215  Cl216   2.285   .     S
Co215  O12     2.027   1_554 S
Co215  O156    2.027   1_554 S
Co217  Cl218   2.285   .     S
Co217  O13     2.027   1_554 S
Co217  O157    2.027   1_554 S
Co219  Cl220   2.285   .     S
Co221  Cl222   2.285   .     S
Co223  Cl224   2.285   .     S
Co223  O16     2.027   1_554 S
Co223  O160    2.027   1_554 S
Co225  Cl226   2.285   .     S
Co225  O89     2.027   1_455 S
Co225  O117    2.027   1_455 S
Co227  Cl228   2.285   .     S
Co227  O90     2.027   1_455 S
Co227  O118    2.027   1_455 S
Co229  Cl230   2.285   .     S
Co231  Cl232   2.285   .     S
Co233  Cl234   2.285   .     S
Co233  O93     2.027   1_455 S
Co233  O113    2.027   1_455 S
Co235  Cl236   2.285   .     S
Co235  O94     2.027   1_455 S
Co235  O114    2.027   1_455 S
Co237  Cl238   2.285   .     S
Co239  Cl240   2.285   .     S
Co241  Cl242   2.285   .     S
Co241  O25     2.027   1_455 S
Co241  O177    2.027   1_455 S
Co243  Cl244   2.285   .     S
Co243  O26     2.027   1_455 S
Co243  O178    2.027   1_455 S
Co245  Cl246   2.285   .     S
Co247  Cl248   2.285   .     S
Co249  Cl250   2.285   .     S
Co249  O29     2.027   1_455 S
Co249  O181    2.027   1_455 S
Co251  Cl252   2.285   .     S
Co251  O30     2.027   1_455 S
Co251  O182    2.027   1_455 S
Co253  Cl254   2.285   .     S
Co255  Cl256   2.285   .     S
Co257  Cl258   2.285   .     S
Co257  O77     2.027   1_545 S
Co257  O133    2.027   1_545 S
Co259  Cl260   2.285   .     S
Co261  Cl262   2.285   .     S
Co261  O79     2.027   1_545 S
Co261  O135    2.027   1_545 S
Co263  Cl264   2.285   .     S
Co265  Cl266   2.285   .     S
Co265  O73     2.027   1_545 S
Co265  O129    2.027   1_545 S
Co267  Cl268   2.285   .     S
Co269  Cl270   2.285   .     S
Co269  O75     2.027   1_545 S
Co269  O131    2.027   1_545 S
Co271  Cl272   2.285   .     S
Co273  Cl274   2.285   .     S
Co273  O41     2.027   1_545 S
Co273  O165    2.027   1_545 S
Co275  Cl276   2.285   .     S
Co277  Cl278   2.285   .     S
Co277  O43     2.027   1_545 S
Co277  O167    2.027   1_545 S
Co279  Cl280   2.285   .     S
Co281  Cl282   2.285   .     S
Co281  O45     2.027   1_545 S
Co281  O161    2.027   1_545 S
Co283  Cl284   2.285   .     S
Co285  Cl286   2.285   .     S
Co285  O47     2.027   1_545 S
Co285  O163    2.027   1_545 S
Co287  Cl288   2.285   .     S
C289   C290    1.522   .     S
C290   C481    1.381   .     S
C290   C507    1.381   .     S
C291   C292    1.522   .     S
C292   C653    1.381   .     S
C292   C505    1.381   .     S
C293   C294    1.522   .     S
C294   C485    1.381   .     S
C294   C517    1.381   .     S
C295   C296    1.522   .     S
C296   C659    1.381   .     S
C296   C515    1.381   .     S
C297   C298    1.522   .     S
C298   C519    1.381   .     S
C298   C489    1.381   .     S
C299   C300    1.522   .     S
C300   C491    1.381   .     S
C300   C511    1.381   .     S
C301   C302    1.522   .     S
C302   C649    1.381   .     S
C302   C509    1.381   .     S
C303   C304    1.522   .     S
C304   C513    1.381   .     S
C304   C493    1.381   .     S
C305   C306    1.522   .     S
C306   C495    1.381   .     S
C306   C503    1.381   .     S
C307   C308    1.522   .     S
C308   C497    1.381   .     S
C308   C501    1.381   .     S
C309   C310    1.522   .     S
C310   C501    1.381   .     S
C310   C529    1.381   .     S
C311   C312    1.522   .     S
C312   C643    1.381   .     S
C312   C525    1.381   .     S
C313   C314    1.522   .     S
C314   C505    1.381   .     S
C314   C671    1.381   .     S
C315   C316    1.522   .     S
C316   C539    1.381   .     S
C316   C507    1.381   .     S
C317   C318    1.522   .     S
C318   C637    1.381   .     S
C318   C535    1.381   .     S
C319   C320    1.522   .     S
C320   C509    1.381   .     S
C320   C667    1.381   .     S
C321   C322    1.522   .     S
C322   C647    1.381   .     S
C322   C531    1.381   .     S
C323   C324    1.522   .     S
C324   C533    1.381   .     S
C324   C513    1.381   .     S
C325   C326    1.522   .     S
C326   C515    1.381   .     S
C326   C663    1.381   .     S
C327   C328    1.522   .     S
C328   C519    1.381   .     S
C328   C521    1.381   .     S
C329   C330    1.522   .     S
C330   C521    1.381   .     S
C330   C489    1.381   .     S
C331   C332    1.522   .     S
C332   C523    1.381   .     S
C332   C487    1.381   .     S
C333   C334    1.522   .     S
C334   C525    1.381   .     S
C334   C657    1.381   .     S
C335   C336    1.522   .     S
C336   C527    1.381   .     S
C336   C499    1.381   .     S
C337   C338    1.522   .     S
C338   C497    1.381   .     S
C338   C529    1.381   .     S
C339   C340    1.522   .     S
C340   C531    1.381   .     S
C340   C651    1.381   .     S
C341   C342    1.522   .     S
C342   C533    1.381   .     S
C342   C493    1.381   .     S
C343   C344    1.522   .     S
C344   C535    1.381   .     S
C344   C655    1.381   .     S
C345   C346    1.522   .     S
C346   C537    1.381   .     S
C346   C483    1.381   .     S
C347   C348    1.522   .     S
C348   C481    1.381   .     S
C348   C539    1.381   .     S
C349   C350    1.522   .     S
C350   C541    1.381   .     S
C350   C567    1.381   .     S
C351   C352    1.522   .     S
C352   C543    1.381   .     S
C352   C603    1.381   .     S
C353   C354    1.522   .     S
C354   C545    1.381   .     S
C354   C577    1.381   .     S
C355   C356    1.522   .     S
C356   C547    1.381   .     S
C356   C579    1.381   .     S
C357   C358    1.522   .     S
C358   C605    1.381   .     S
C358   C623    1.381   .     S
C359   C360    1.522   .     S
C360   C551    1.381   .     S
C360   C573    1.381   .     S
C361   C362    1.522   .     S
C362   C553    1.381   .     S
C362   C611    1.381   .     S
C363   C364    1.522   .     S
C364   C555    1.381   .     S
C364   C563    1.381   .     S
C365   C366    1.522   .     S
C366   C557    1.381   .     S
C366   C609    1.381   .     S
C367   C368    1.522   .     S
C368   C561    1.381   .     S
C368   C621    1.381   .     S
C369   C370    1.522   .     S
C370   C561    1.381   .     S
C370   C587    1.381   .     S
C371   C372    1.522   .     S
C372   C607    1.381   .     S
C372   C585    1.381   .     S
C373   C374    1.522   .     S
C374   C565    1.381   .     S
C374   C597    1.381   .     S
C375   C376    1.522   .     S
C376   C601    1.381   .     S
C376   C595    1.381   .     S
C377   C378    1.522   .     S
C378   C635    1.381   .     S
C378   C603    1.381   .     S
C379   C380    1.522   .     S
C380   C569    1.381   .     S
C380   C591    1.381   .     S
C381   C382    1.522   .     S
C382   C571    1.381   .     S
C382   C589    1.381   .     S
C383   C384    1.522   .     S
C384   C629    1.381   .     S
C384   C573    1.381   .     S
C385   C386    1.522   .     S
C386   C575    1.381   .     S
C386   C583    1.381   .     S
C387   C388    1.522   .     S
C388   C605    1.381   .     S
C388   C581    1.381   .     S
C389   C390    1.522   .     S
C390   C581    1.381   .     S
C390   C623    1.381   .     S
C391   C392    1.522   .     S
C392   C627    1.381   .     S
C392   C547    1.381   .     S
C393   C394    1.522   .     S
C394   C585    1.381   .     S
C394   C559    1.381   .     S
C395   C396    1.522   .     S
C396   C633    1.381   .     S
C396   C557    1.381   .     S
C397   C398    1.522   .     S
C398   C555    1.381   .     S
C398   C631    1.381   .     S
C399   C400    1.522   .     S
C400   C589    1.381   .     S
C400   C615    1.381   .     S
C401   C402    1.522   .     S
C402   C593    1.381   .     S
C402   C553    1.381   .     S
C403   C404    1.522   .     S
C404   C595    1.381   .     S
C404   C619    1.381   .     S
C405   C406    1.522   .     S
C406   C617    1.381   .     S
C406   C597    1.381   .     S
C407   C408    1.522   .     S
C408   C635    1.381   .     S
C408   C543    1.381   .     S
C409   C410    1.522   .     S
C410   C601    1.381   .     S
C410   C619    1.381   .     S
C411   C412    1.522   .     S
C412   C565    1.381   .     S
C412   C617    1.381   .     S
C413   C414    1.522   .     S
C414   C575    1.381   .     S
C414   C549    1.381   .     S
C415   C416    1.522   .     S
C416   C607    1.381   .     S
C416   C559    1.381   .     S
C417   C418    1.522   .     S
C418   C571    1.381   .     S
C418   C615    1.381   .     S
C419   C420    1.522   .     S
C420   C569    1.381   .     S
C420   C613    1.381   .     S
C421   C422    1.522   .     S
C422   C613    1.381   .     S
C422   C591    1.381   .     S
C423   C424    1.522   .     S
C424   C551    1.381   .     S
C424   C629    1.381   .     S
C425   C426    1.522   .     S
C426   C541    1.381   .     S
C426   C599    1.381   .     S
C427   C428    1.522   .     S
C428   C621    1.381   .     S
C428   C587    1.381   .     S
C429   C430    1.522   .     S
C430   C549    1.381   .     S
C430   C583    1.381   .     S
C431   C432    1.522   .     S
C432   C545    1.381   .     S
C432   C625    1.381   .     S
C433   C434    1.522   .     S
C434   C625    1.381   .     S
C434   C577    1.381   .     S
C435   C436    1.522   .     S
C436   C627    1.381   .     S
C436   C579    1.381   .     S
C437   C438    1.522   .     S
C438   C593    1.381   .     S
C438   C611    1.381   .     S
C439   C440    1.522   .     S
C440   C631    1.381   .     S
C440   C563    1.381   .     S
C441   C442    1.522   .     S
C442   C633    1.381   .     S
C442   C609    1.381   .     S
C443   C444    1.522   .     S
C444   C599    1.381   .     S
C444   C567    1.381   .     S
C445   C446    1.522   .     S
C446   C637    1.381   .     S
C446   C655    1.381   .     S
C447   C448    1.522   .     S
C448   C639    1.381   .     S
C448   C483    1.381   .     S
C449   C450    1.522   .     S
C450   C641    1.381   .     S
C450   C487    1.381   .     S
C451   C452    1.522   .     S
C452   C643    1.381   .     S
C452   C657    1.381   .     S
C453   C454    1.522   .     S
C454   C645    1.381   .     S
C454   C499    1.381   .     S
C455   C456    1.522   .     S
C456   C647    1.381   .     S
C456   C651    1.381   .     S
C457   C458    1.522   .     S
C458   C649    1.381   .     S
C458   C667    1.381   .     S
C459   C460    1.522   .     S
C460   C491    1.381   .     S
C460   C665    1.381   .     S
C461   C462    1.522   .     S
C462   C653    1.381   .     S
C462   C671    1.381   .     S
C463   C464    1.522   .     S
C464   C495    1.381   .     S
C464   C669    1.381   .     S
C465   C466    1.522   .     S
C466   C659    1.381   .     S
C466   C663    1.381   .     S
C467   C468    1.522   .     S
C468   C485    1.381   .     S
C468   C661    1.381   .     S
C469   C470    1.522   .     S
C470   C661    1.381   .     S
C470   C517    1.381   .     S
C471   C472    1.522   .     S
C472   C523    1.381   .     S
C472   C641    1.381   .     S
C473   C474    1.522   .     S
C474   C665    1.381   .     S
C474   C511    1.381   .     S
C475   C476    1.522   .     S
C476   C669    1.381   .     S
C476   C503    1.381   .     S
C477   C478    1.522   .     S
C478   C527    1.381   .     S
C478   C645    1.381   .     S
C479   C480    1.522   .     S
C480   C537    1.381   .     S
C480   C639    1.381   .     S
C481   H482    0.929   .     S
C483   H484    0.929   .     S
C485   H486    0.929   .     S
C487   H488    0.929   .     S
C489   H490    0.929   .     S
C491   H492    0.929   .     S
C493   H494    0.929   .     S
C495   H496    0.929   .     S
C497   H498    0.929   .     S
C499   H500    0.929   .     S
C501   H502    0.929   .     S
C503   H504    0.929   .     S
C505   H506    0.929   .     S
C507   H508    0.929   .     S
C509   H510    0.929   .     S
C511   H512    0.929   .     S
C513   H514    0.929   .     S
C515   H516    0.929   .     S
C517   H518    0.929   .     S
C519   H520    0.929   .     S
C521   H522    0.929   .     S
C523   H524    0.929   .     S
C525   H526    0.929   .     S
C527   H528    0.929   .     S
C529   H530    0.929   .     S
C531   H532    0.929   .     S
C533   H534    0.929   .     S
C535   H536    0.929   .     S
C537   H538    0.929   .     S
C539   H540    0.929   .     S
C541   H542    0.929   .     S
C543   H544    0.929   .     S
C545   H546    0.929   .     S
C547   H548    0.929   .     S
C549   H550    0.929   .     S
C551   H552    0.929   .     S
C553   H554    0.929   .     S
C555   H556    0.929   .     S
C557   H558    0.929   .     S
C559   H560    0.929   .     S
C561   H562    0.929   .     S
C563   H564    0.929   .     S
C565   H566    0.929   .     S
C567   H568    0.929   .     S
C569   H570    0.929   .     S
C571   H572    0.929   .     S
C573   H574    0.929   .     S
C575   H576    0.929   .     S
C577   H578    0.929   .     S
C579   H580    0.929   .     S
C581   H582    0.929   .     S
C583   H584    0.929   .     S
C585   H586    0.929   .     S
C587   H588    0.929   .     S
C589   H590    0.929   .     S
C591   H592    0.929   .     S
C593   H594    0.929   .     S
C595   H596    0.929   .     S
C597   H598    0.929   .     S
C599   H600    0.929   .     S
C601   H602    0.929   .     S
C603   H604    0.929   .     S
C605   H606    0.929   .     S
C607   H608    0.929   .     S
C609   H610    0.929   .     S
C611   H612    0.929   .     S
C613   H614    0.929   .     S
C615   H616    0.929   .     S
C617   H618    0.929   .     S
C619   H620    0.929   .     S
C621   H622    0.929   .     S
C623   H624    0.929   .     S
C625   H626    0.929   .     S
C627   H628    0.929   .     S
C629   H630    0.929   .     S
C631   H632    0.929   .     S
C633   H634    0.929   .     S
C635   H636    0.929   .     S
C637   H638    0.929   .     S
C639   H640    0.929   .     S
C641   H642    0.929   .     S
C643   H644    0.929   .     S
C645   H646    0.929   .     S
C647   H648    0.929   .     S
C649   H650    0.929   .     S
C651   H652    0.929   .     S
C653   H654    0.929   .     S
C655   H656    0.929   .     S
C657   H658    0.929   .     S
C659   H660    0.929   .     S
C661   H662    0.929   .     S
C663   H664    0.929   .     S
C665   H666    0.929   .     S
C667   H668    0.929   .     S
C669   H670    0.929   .     S
C671   H672    0.929   .     S
