data_ABEXEN_FSR
_audit_creation_date              2024-06-11
_audit_creation_method            'Materials Studio'
_symmetry_space_group_name_H-M    'P1'
_symmetry_Int_Tables_number       1
_symmetry_cell_setting            triclinic
loop_
_symmetry_equiv_pos_as_xyz
  x,y,z
_cell_length_a                    25.0980
_cell_length_b                    25.0980
_cell_length_c                    28.4464
_cell_angle_alpha                 90.0000
_cell_angle_beta                  90.0000
_cell_angle_gamma                 120.0000
loop_
_atom_site_label
_atom_site_type_symbol
_atom_site_fract_x
_atom_site_fract_y
_atom_site_fract_z
_atom_site_U_iso_or_equiv
_atom_site_adp_type
_atom_site_occupancy
O1     O     0.69687   0.16153   0.07891   0.08271  Uani   1.00
O2     O     0.63641   0.19327   0.05136   0.07887  Uani   1.00
C3     C     0.66075   0.18251   0.08539   0.07833  Uani   1.00
C4     C     0.64650   0.19340   0.13425   0.08821  Uani   1.00
C5     C     0.67330   0.18140   0.17242   0.11344  Uani   1.00
H6     H     0.70240   0.16930   0.16760   0.13600  Uiso   1.00
C7     C     0.60640   0.21480   0.14190   0.11033  Uani   1.00
H8     H     0.58990   0.22500   0.11650   0.13300  Uiso   1.00
C9     C     0.65630   0.18740   0.21798   0.12411  Uani   1.00
H10    H     0.67370   0.17850   0.24350   0.14900  Uiso   1.00
C11    C     0.59040   0.22130   0.18737   0.12033  Uani   1.00
H12    H     0.56320   0.23580   0.19210   0.14400  Uiso   1.00
C13    C     0.61420   0.20650   0.22557   0.10322  Uani   1.00
O14    O     0.83847   0.53534   0.07891   0.08271  Uani   1.00
O15    O     0.80673   0.44314   0.05136   0.07887  Uani   1.00
C16    C     0.81749   0.47824   0.08539   0.07833  Uani   1.00
C17    C     0.80660   0.45310   0.13425   0.08821  Uani   1.00
C18    C     0.81860   0.49190   0.17242   0.11344  Uani   1.00
H19    H     0.83070   0.53310   0.16760   0.13600  Uiso   1.00
C20    C     0.78520   0.39160   0.14190   0.11033  Uani   1.00
H21    H     0.77500   0.36490   0.11650   0.13300  Uiso   1.00
C22    C     0.81260   0.46890   0.21798   0.12411  Uani   1.00
H23    H     0.82150   0.49520   0.24350   0.14900  Uiso   1.00
C24    C     0.77870   0.36910   0.18737   0.12033  Uani   1.00
H25    H     0.76420   0.32740   0.19210   0.14400  Uiso   1.00
C26    C     0.79350   0.40770   0.22557   0.10322  Uani   1.00
O27    O     0.46466   0.30313   0.07891   0.08271  Uani   1.00
O28    O     0.55686   0.36359   0.05136   0.07887  Uani   1.00
C29    C     0.52176   0.33925   0.08539   0.07833  Uani   1.00
C30    C     0.54690   0.35350   0.13425   0.08821  Uani   1.00
C31    C     0.50810   0.32670   0.17242   0.11344  Uani   1.00
H32    H     0.46690   0.29760   0.16760   0.13600  Uiso   1.00
C33    C     0.60840   0.39360   0.14190   0.11033  Uani   1.00
H34    H     0.63510   0.41010   0.11650   0.13300  Uiso   1.00
C35    C     0.53110   0.34370   0.21798   0.12411  Uani   1.00
H36    H     0.50480   0.32630   0.24350   0.14900  Uiso   1.00
C37    C     0.63090   0.40960   0.18737   0.12033  Uani   1.00
H38    H     0.67260   0.43680   0.19210   0.14400  Uiso   1.00
C39    C     0.59230   0.38580   0.22557   0.10322  Uani   1.00
O40    O     0.30313   0.83847   0.07891   0.08271  Uani   1.00
O41    O     0.36359   0.80673   0.05136   0.07887  Uani   1.00
C42    C     0.33925   0.81749   0.08539   0.07833  Uani   1.00
C43    C     0.35350   0.80660   0.13425   0.08821  Uani   1.00
C44    C     0.32670   0.81860   0.17242   0.11344  Uani   1.00
H45    H     0.29760   0.83070   0.16760   0.13600  Uiso   1.00
C46    C     0.39360   0.78520   0.14190   0.11033  Uani   1.00
H47    H     0.41010   0.77500   0.11650   0.13300  Uiso   1.00
C48    C     0.34370   0.81260   0.21798   0.12411  Uani   1.00
H49    H     0.32630   0.82150   0.24350   0.14900  Uiso   1.00
C50    C     0.40960   0.77870   0.18737   0.12033  Uani   1.00
H51    H     0.43680   0.76420   0.19210   0.14400  Uiso   1.00
C52    C     0.38580   0.79350   0.22557   0.10322  Uani   1.00
O53    O     0.16153   0.46466   0.07891   0.08271  Uani   1.00
O54    O     0.19327   0.55686   0.05136   0.07887  Uani   1.00
C55    C     0.18251   0.52176   0.08539   0.07833  Uani   1.00
C56    C     0.19340   0.54690   0.13425   0.08821  Uani   1.00
C57    C     0.18140   0.50810   0.17242   0.11344  Uani   1.00
H58    H     0.16930   0.46690   0.16760   0.13600  Uiso   1.00
C59    C     0.21480   0.60840   0.14190   0.11033  Uani   1.00
H60    H     0.22500   0.63510   0.11650   0.13300  Uiso   1.00
C61    C     0.18740   0.53110   0.21798   0.12411  Uani   1.00
H62    H     0.17850   0.50480   0.24350   0.14900  Uiso   1.00
C63    C     0.22130   0.63090   0.18737   0.12033  Uani   1.00
H64    H     0.23580   0.67260   0.19210   0.14400  Uiso   1.00
C65    C     0.20650   0.59230   0.22557   0.10322  Uani   1.00
O66    O     0.53534   0.69687   0.07891   0.08271  Uani   1.00
O67    O     0.44314   0.63641   0.05136   0.07887  Uani   1.00
C68    C     0.47824   0.66075   0.08539   0.07833  Uani   1.00
C69    C     0.45310   0.64650   0.13425   0.08821  Uani   1.00
C70    C     0.49190   0.67330   0.17242   0.11344  Uani   1.00
H71    H     0.53310   0.70240   0.16760   0.13600  Uiso   1.00
C72    C     0.39160   0.60640   0.14190   0.11033  Uani   1.00
H73    H     0.36490   0.58990   0.11650   0.13300  Uiso   1.00
C74    C     0.46890   0.65630   0.21798   0.12411  Uani   1.00
H75    H     0.49520   0.67370   0.24350   0.14900  Uiso   1.00
C76    C     0.36910   0.59040   0.18737   0.12033  Uani   1.00
H77    H     0.32740   0.56320   0.19210   0.14400  Uiso   1.00
C78    C     0.40770   0.61420   0.22557   0.10322  Uani   1.00
O79    O     0.16153   0.69687   0.42109   0.08271  Uani   1.00
O80    O     0.19327   0.63641   0.44864   0.07887  Uani   1.00
C81    C     0.18251   0.66075   0.41461   0.07833  Uani   1.00
C82    C     0.19340   0.64650   0.36575   0.08821  Uani   1.00
C83    C     0.18140   0.67330   0.32758   0.11344  Uani   1.00
H84    H     0.16930   0.70240   0.33240   0.13600  Uiso   1.00
C85    C     0.21480   0.60640   0.35810   0.11033  Uani   1.00
H86    H     0.22500   0.58990   0.38350   0.13300  Uiso   1.00
C87    C     0.18740   0.65630   0.28202   0.12411  Uani   1.00
H88    H     0.17850   0.67370   0.25650   0.14900  Uiso   1.00
C89    C     0.22130   0.59040   0.31263   0.12033  Uani   1.00
H90    H     0.23580   0.56320   0.30790   0.14400  Uiso   1.00
C91    C     0.20650   0.61420   0.27443   0.10322  Uani   1.00
O92    O     0.53534   0.83847   0.42109   0.08271  Uani   1.00
O93    O     0.44314   0.80673   0.44864   0.07887  Uani   1.00
C94    C     0.47824   0.81749   0.41461   0.07833  Uani   1.00
C95    C     0.45310   0.80660   0.36575   0.08821  Uani   1.00
C96    C     0.49190   0.81860   0.32758   0.11344  Uani   1.00
H97    H     0.53310   0.83070   0.33240   0.13600  Uiso   1.00
C98    C     0.39160   0.78520   0.35810   0.11033  Uani   1.00
H99    H     0.36490   0.77500   0.38350   0.13300  Uiso   1.00
C100   C     0.46890   0.81260   0.28202   0.12411  Uani   1.00
H101   H     0.49520   0.82150   0.25650   0.14900  Uiso   1.00
C102   C     0.36910   0.77870   0.31263   0.12033  Uani   1.00
H103   H     0.32740   0.76420   0.30790   0.14400  Uiso   1.00
C104   C     0.40770   0.79350   0.27443   0.10322  Uani   1.00
O105   O     0.30313   0.46466   0.42109   0.08271  Uani   1.00
O106   O     0.36359   0.55686   0.44864   0.07887  Uani   1.00
C107   C     0.33925   0.52176   0.41461   0.07833  Uani   1.00
C108   C     0.35350   0.54690   0.36575   0.08821  Uani   1.00
C109   C     0.32670   0.50810   0.32758   0.11344  Uani   1.00
H110   H     0.29760   0.46690   0.33240   0.13600  Uiso   1.00
C111   C     0.39360   0.60840   0.35810   0.11033  Uani   1.00
H112   H     0.41010   0.63510   0.38350   0.13300  Uiso   1.00
C113   C     0.34370   0.53110   0.28202   0.12411  Uani   1.00
H114   H     0.32630   0.50480   0.25650   0.14900  Uiso   1.00
C115   C     0.40960   0.63090   0.31263   0.12033  Uani   1.00
H116   H     0.43680   0.67260   0.30790   0.14400  Uiso   1.00
C117   C     0.38580   0.59230   0.27443   0.10322  Uani   1.00
O118   O     0.83847   0.30313   0.42109   0.08271  Uani   1.00
O119   O     0.80673   0.36359   0.44864   0.07887  Uani   1.00
C120   C     0.81749   0.33925   0.41461   0.07833  Uani   1.00
C121   C     0.80660   0.35350   0.36575   0.08821  Uani   1.00
C122   C     0.81860   0.32670   0.32758   0.11344  Uani   1.00
H123   H     0.83070   0.29760   0.33240   0.13600  Uiso   1.00
C124   C     0.78520   0.39360   0.35810   0.11033  Uani   1.00
H125   H     0.77500   0.41010   0.38350   0.13300  Uiso   1.00
C126   C     0.81260   0.34370   0.28202   0.12411  Uani   1.00
H127   H     0.82150   0.32630   0.25650   0.14900  Uiso   1.00
C128   C     0.77870   0.40960   0.31263   0.12033  Uani   1.00
H129   H     0.76420   0.43680   0.30790   0.14400  Uiso   1.00
C130   C     0.79350   0.38580   0.27443   0.10322  Uani   1.00
O131   O     0.46466   0.16153   0.42109   0.08271  Uani   1.00
O132   O     0.55686   0.19327   0.44864   0.07887  Uani   1.00
C133   C     0.52176   0.18251   0.41461   0.07833  Uani   1.00
C134   C     0.54690   0.19340   0.36575   0.08821  Uani   1.00
C135   C     0.50810   0.18140   0.32758   0.11344  Uani   1.00
H136   H     0.46690   0.16930   0.33240   0.13600  Uiso   1.00
C137   C     0.60840   0.21480   0.35810   0.11033  Uani   1.00
H138   H     0.63510   0.22500   0.38350   0.13300  Uiso   1.00
C139   C     0.53110   0.18740   0.28202   0.12411  Uani   1.00
H140   H     0.50480   0.17850   0.25650   0.14900  Uiso   1.00
C141   C     0.63090   0.22130   0.31263   0.12033  Uani   1.00
H142   H     0.67260   0.23580   0.30790   0.14400  Uiso   1.00
C143   C     0.59230   0.20650   0.27443   0.10322  Uani   1.00
O144   O     0.69687   0.53534   0.42109   0.08271  Uani   1.00
O145   O     0.63641   0.44314   0.44864   0.07887  Uani   1.00
C146   C     0.66075   0.47824   0.41461   0.07833  Uani   1.00
C147   C     0.64650   0.45310   0.36575   0.08821  Uani   1.00
C148   C     0.67330   0.49190   0.32758   0.11344  Uani   1.00
H149   H     0.70240   0.53310   0.33240   0.13600  Uiso   1.00
C150   C     0.60640   0.39160   0.35810   0.11033  Uani   1.00
H151   H     0.58990   0.36490   0.38350   0.13300  Uiso   1.00
C152   C     0.65630   0.46890   0.28202   0.12411  Uani   1.00
H153   H     0.67370   0.49520   0.25650   0.14900  Uiso   1.00
C154   C     0.59040   0.36910   0.31263   0.12033  Uani   1.00
H155   H     0.56320   0.32740   0.30790   0.14400  Uiso   1.00
C156   C     0.61420   0.40770   0.27443   0.10322  Uani   1.00
O157   O     0.30313   0.83847   0.92109   0.08271  Uani   1.00
O158   O     0.36359   0.80673   0.94864   0.07887  Uani   1.00
C159   C     0.33925   0.81749   0.91461   0.07833  Uani   1.00
C160   C     0.35350   0.80660   0.86575   0.08821  Uani   1.00
C161   C     0.32670   0.81860   0.82758   0.11344  Uani   1.00
H162   H     0.29760   0.83070   0.83240   0.13600  Uiso   1.00
C163   C     0.39360   0.78520   0.85810   0.11033  Uani   1.00
H164   H     0.41010   0.77500   0.88350   0.13300  Uiso   1.00
C165   C     0.34370   0.81260   0.78202   0.12411  Uani   1.00
H166   H     0.32630   0.82150   0.75650   0.14900  Uiso   1.00
C167   C     0.40960   0.77870   0.81263   0.12033  Uani   1.00
H168   H     0.43680   0.76420   0.80790   0.14400  Uiso   1.00
C169   C     0.38580   0.79350   0.77443   0.10322  Uani   1.00
O170   O     0.16153   0.46466   0.92109   0.08271  Uani   1.00
O171   O     0.19327   0.55686   0.94864   0.07887  Uani   1.00
C172   C     0.18251   0.52176   0.91461   0.07833  Uani   1.00
C173   C     0.19340   0.54690   0.86575   0.08821  Uani   1.00
C174   C     0.18140   0.50810   0.82758   0.11344  Uani   1.00
H175   H     0.16930   0.46690   0.83240   0.13600  Uiso   1.00
C176   C     0.21480   0.60840   0.85810   0.11033  Uani   1.00
H177   H     0.22500   0.63510   0.88350   0.13300  Uiso   1.00
C178   C     0.18740   0.53110   0.78202   0.12411  Uani   1.00
H179   H     0.17850   0.50480   0.75650   0.14900  Uiso   1.00
C180   C     0.22130   0.63090   0.81263   0.12033  Uani   1.00
H181   H     0.23580   0.67260   0.80790   0.14400  Uiso   1.00
C182   C     0.20650   0.59230   0.77443   0.10322  Uani   1.00
O183   O     0.53534   0.69687   0.92109   0.08271  Uani   1.00
O184   O     0.44314   0.63641   0.94864   0.07887  Uani   1.00
C185   C     0.47824   0.66075   0.91461   0.07833  Uani   1.00
C186   C     0.45310   0.64650   0.86575   0.08821  Uani   1.00
C187   C     0.49190   0.67330   0.82758   0.11344  Uani   1.00
H188   H     0.53310   0.70240   0.83240   0.13600  Uiso   1.00
C189   C     0.39160   0.60640   0.85810   0.11033  Uani   1.00
H190   H     0.36490   0.58990   0.88350   0.13300  Uiso   1.00
C191   C     0.46890   0.65630   0.78202   0.12411  Uani   1.00
H192   H     0.49520   0.67370   0.75650   0.14900  Uiso   1.00
C193   C     0.36910   0.59040   0.81263   0.12033  Uani   1.00
H194   H     0.32740   0.56320   0.80790   0.14400  Uiso   1.00
C195   C     0.40770   0.61420   0.77443   0.10322  Uani   1.00
O196   O     0.69687   0.16153   0.92109   0.08271  Uani   1.00
O197   O     0.63641   0.19327   0.94864   0.07887  Uani   1.00
C198   C     0.66075   0.18251   0.91461   0.07833  Uani   1.00
C199   C     0.64650   0.19340   0.86575   0.08821  Uani   1.00
C200   C     0.67330   0.18140   0.82758   0.11344  Uani   1.00
H201   H     0.70240   0.16930   0.83240   0.13600  Uiso   1.00
C202   C     0.60640   0.21480   0.85810   0.11033  Uani   1.00
H203   H     0.58990   0.22500   0.88350   0.13300  Uiso   1.00
C204   C     0.65630   0.18740   0.78202   0.12411  Uani   1.00
H205   H     0.67370   0.17850   0.75650   0.14900  Uiso   1.00
C206   C     0.59040   0.22130   0.81263   0.12033  Uani   1.00
H207   H     0.56320   0.23580   0.80790   0.14400  Uiso   1.00
C208   C     0.61420   0.20650   0.77443   0.10322  Uani   1.00
O209   O     0.83847   0.53534   0.92109   0.08271  Uani   1.00
O210   O     0.80673   0.44314   0.94864   0.07887  Uani   1.00
C211   C     0.81749   0.47824   0.91461   0.07833  Uani   1.00
C212   C     0.80660   0.45310   0.86575   0.08821  Uani   1.00
C213   C     0.81860   0.49190   0.82758   0.11344  Uani   1.00
H214   H     0.83070   0.53310   0.83240   0.13600  Uiso   1.00
C215   C     0.78520   0.39160   0.85810   0.11033  Uani   1.00
H216   H     0.77500   0.36490   0.88350   0.13300  Uiso   1.00
C217   C     0.81260   0.46890   0.78202   0.12411  Uani   1.00
H218   H     0.82150   0.49520   0.75650   0.14900  Uiso   1.00
C219   C     0.77870   0.36910   0.81263   0.12033  Uani   1.00
H220   H     0.76420   0.32740   0.80790   0.14400  Uiso   1.00
C221   C     0.79350   0.40770   0.77443   0.10322  Uani   1.00
O222   O     0.46466   0.30313   0.92109   0.08271  Uani   1.00
O223   O     0.55686   0.36359   0.94864   0.07887  Uani   1.00
C224   C     0.52176   0.33925   0.91461   0.07833  Uani   1.00
C225   C     0.54690   0.35350   0.86575   0.08821  Uani   1.00
C226   C     0.50810   0.32670   0.82758   0.11344  Uani   1.00
H227   H     0.46690   0.29760   0.83240   0.13600  Uiso   1.00
C228   C     0.60840   0.39360   0.85810   0.11033  Uani   1.00
H229   H     0.63510   0.41010   0.88350   0.13300  Uiso   1.00
C230   C     0.53110   0.34370   0.78202   0.12411  Uani   1.00
H231   H     0.50480   0.32630   0.75650   0.14900  Uiso   1.00
C232   C     0.63090   0.40960   0.81263   0.12033  Uani   1.00
H233   H     0.67260   0.43680   0.80790   0.14400  Uiso   1.00
C234   C     0.59230   0.38580   0.77443   0.10322  Uani   1.00
O235   O     0.83847   0.30313   0.57891   0.08271  Uani   1.00
O236   O     0.80673   0.36359   0.55136   0.07887  Uani   1.00
C237   C     0.81749   0.33925   0.58539   0.07833  Uani   1.00
C238   C     0.80660   0.35350   0.63425   0.08821  Uani   1.00
C239   C     0.81860   0.32670   0.67242   0.11344  Uani   1.00
H240   H     0.83070   0.29760   0.66760   0.13600  Uiso   1.00
C241   C     0.78520   0.39360   0.64190   0.11033  Uani   1.00
H242   H     0.77500   0.41010   0.61650   0.13300  Uiso   1.00
C243   C     0.81260   0.34370   0.71798   0.12411  Uani   1.00
H244   H     0.82150   0.32630   0.74350   0.14900  Uiso   1.00
C245   C     0.77870   0.40960   0.68737   0.12033  Uani   1.00
H246   H     0.76420   0.43680   0.69210   0.14400  Uiso   1.00
C247   C     0.79350   0.38580   0.72557   0.10322  Uani   1.00
O248   O     0.46466   0.16153   0.57891   0.08271  Uani   1.00
O249   O     0.55686   0.19327   0.55136   0.07887  Uani   1.00
C250   C     0.52176   0.18251   0.58539   0.07833  Uani   1.00
C251   C     0.54690   0.19340   0.63425   0.08821  Uani   1.00
C252   C     0.50810   0.18140   0.67242   0.11344  Uani   1.00
H253   H     0.46690   0.16930   0.66760   0.13600  Uiso   1.00
C254   C     0.60840   0.21480   0.64190   0.11033  Uani   1.00
H255   H     0.63510   0.22500   0.61650   0.13300  Uiso   1.00
C256   C     0.53110   0.18740   0.71798   0.12411  Uani   1.00
H257   H     0.50480   0.17850   0.74350   0.14900  Uiso   1.00
C258   C     0.63090   0.22130   0.68737   0.12033  Uani   1.00
H259   H     0.67260   0.23580   0.69210   0.14400  Uiso   1.00
C260   C     0.59230   0.20650   0.72557   0.10322  Uani   1.00
O261   O     0.69687   0.53534   0.57891   0.08271  Uani   1.00
O262   O     0.63641   0.44314   0.55136   0.07887  Uani   1.00
C263   C     0.66075   0.47824   0.58539   0.07833  Uani   1.00
C264   C     0.64650   0.45310   0.63425   0.08821  Uani   1.00
C265   C     0.67330   0.49190   0.67242   0.11344  Uani   1.00
H266   H     0.70240   0.53310   0.66760   0.13600  Uiso   1.00
C267   C     0.60640   0.39160   0.64190   0.11033  Uani   1.00
H268   H     0.58990   0.36490   0.61650   0.13300  Uiso   1.00
C269   C     0.65630   0.46890   0.71798   0.12411  Uani   1.00
H270   H     0.67370   0.49520   0.74350   0.14900  Uiso   1.00
C271   C     0.59040   0.36910   0.68737   0.12033  Uani   1.00
H272   H     0.56320   0.32740   0.69210   0.14400  Uiso   1.00
C273   C     0.61420   0.40770   0.72557   0.10322  Uani   1.00
O274   O     0.16153   0.69687   0.57891   0.08271  Uani   1.00
O275   O     0.19327   0.63641   0.55136   0.07887  Uani   1.00
C276   C     0.18251   0.66075   0.58539   0.07833  Uani   1.00
C277   C     0.19340   0.64650   0.63425   0.08821  Uani   1.00
C278   C     0.18140   0.67330   0.67242   0.11344  Uani   1.00
H279   H     0.16930   0.70240   0.66760   0.13600  Uiso   1.00
C280   C     0.21480   0.60640   0.64190   0.11033  Uani   1.00
H281   H     0.22500   0.58990   0.61650   0.13300  Uiso   1.00
C282   C     0.18740   0.65630   0.71798   0.12411  Uani   1.00
H283   H     0.17850   0.67370   0.74350   0.14900  Uiso   1.00
C284   C     0.22130   0.59040   0.68737   0.12033  Uani   1.00
H285   H     0.23580   0.56320   0.69210   0.14400  Uiso   1.00
C286   C     0.20650   0.61420   0.72557   0.10322  Uani   1.00
O287   O     0.53534   0.83847   0.57891   0.08271  Uani   1.00
O288   O     0.44314   0.80673   0.55136   0.07887  Uani   1.00
C289   C     0.47824   0.81749   0.58539   0.07833  Uani   1.00
C290   C     0.45310   0.80660   0.63425   0.08821  Uani   1.00
C291   C     0.49190   0.81860   0.67242   0.11344  Uani   1.00
H292   H     0.53310   0.83070   0.66760   0.13600  Uiso   1.00
C293   C     0.39160   0.78520   0.64190   0.11033  Uani   1.00
H294   H     0.36490   0.77500   0.61650   0.13300  Uiso   1.00
C295   C     0.46890   0.81260   0.71798   0.12411  Uani   1.00
H296   H     0.49520   0.82150   0.74350   0.14900  Uiso   1.00
C297   C     0.36910   0.77870   0.68737   0.12033  Uani   1.00
H298   H     0.32740   0.76420   0.69210   0.14400  Uiso   1.00
C299   C     0.40770   0.79350   0.72557   0.10322  Uani   1.00
O300   O     0.30313   0.46466   0.57891   0.08271  Uani   1.00
O301   O     0.36359   0.55686   0.55136   0.07887  Uani   1.00
C302   C     0.33925   0.52176   0.58539   0.07833  Uani   1.00
C303   C     0.35350   0.54690   0.63425   0.08821  Uani   1.00
C304   C     0.32670   0.50810   0.67242   0.11344  Uani   1.00
H305   H     0.29760   0.46690   0.66760   0.13600  Uiso   1.00
C306   C     0.39360   0.60840   0.64190   0.11033  Uani   1.00
H307   H     0.41010   0.63510   0.61650   0.13300  Uiso   1.00
C308   C     0.34370   0.53110   0.71798   0.12411  Uani   1.00
H309   H     0.32630   0.50480   0.74350   0.14900  Uiso   1.00
C310   C     0.40960   0.63090   0.68737   0.12033  Uani   1.00
H311   H     0.43680   0.67260   0.69210   0.14400  Uiso   1.00
C312   C     0.38580   0.59230   0.72557   0.10322  Uani   1.00
In313  In    0.68785   0.16294   0.00000   0.05268  Uani   1.00
S314   S     0.92813   0.30318   0.00000   0.07023  Uani   1.00
O315   O     0.06868   0.38132   0.00000   0.07598  Uani   1.00
O316   O     0.79306   0.20203   0.00000   0.06569  Uani   1.00
O317   O     0.07237   0.47008   0.00000   0.08476  Uani   1.00
C318   C     0.80100   0.25540   0.00000   0.06356  Uani   1.00
O319   O     0.75612   0.26424   0.00000   0.07033  Uani   1.00
C320   C     0.86340   0.30970   0.00000   0.06767  Uani   1.00
C321   C     0.97450   0.38100   0.00000   0.07333  Uani   1.00
C322   C     0.04160   0.41200   0.00000   0.07233  Uani   1.00
C323   C     0.87750   0.36910   0.00000   0.10244  Uani   1.00
H324   H     0.84810   0.38140   0.00000   0.12300  Uiso   1.00
C325   C     0.93970   0.40940   0.00000   0.11400  Uani   1.00
H326   H     0.95680   0.45190   0.00000   0.13700  Uiso   1.00
In327  In    0.83706   0.52491   0.00000   0.05268  Uani   1.00
S328   S     0.69682   0.62495   0.00000   0.07023  Uani   1.00
O329   O     0.61868   0.68736   0.00000   0.07598  Uani   1.00
O330   O     0.79797   0.59103   0.00000   0.06569  Uani   1.00
O331   O     0.52992   0.60229   0.00000   0.08476  Uani   1.00
C332   C     0.74460   0.54560   0.00000   0.06356  Uani   1.00
O333   O     0.73576   0.49188   0.00000   0.07033  Uani   1.00
C334   C     0.69030   0.55370   0.00000   0.06767  Uani   1.00
C335   C     0.61900   0.59350   0.00000   0.07333  Uani   1.00
C336   C     0.58800   0.62960   0.00000   0.07233  Uani   1.00
C337   C     0.63090   0.50840   0.00000   0.10244  Uani   1.00
H338   H     0.61860   0.46670   0.00000   0.12300  Uiso   1.00
C339   C     0.59060   0.53030   0.00000   0.11400  Uani   1.00
H340   H     0.54810   0.50490   0.00000   0.13700  Uiso   1.00
In341  In    0.47509   0.31215   0.00000   0.05268  Uani   1.00
S342   S     0.37505   0.07187   0.00000   0.07023  Uani   1.00
O343   O     0.31264   0.93132   0.00000   0.07598  Uani   1.00
O344   O     0.40897   0.20694   0.00000   0.06569  Uani   1.00
O345   O     0.39771   0.92763   0.00000   0.08476  Uani   1.00
C346   C     0.45440   0.19900   0.00000   0.06356  Uani   1.00
O347   O     0.50812   0.24388   0.00000   0.07033  Uani   1.00
C348   C     0.44630   0.13660   0.00000   0.06767  Uani   1.00
C349   C     0.40650   0.02550   0.00000   0.07333  Uani   1.00
C350   C     0.37040   0.95840   0.00000   0.07233  Uani   1.00
C351   C     0.49160   0.12250   0.00000   0.10244  Uani   1.00
H352   H     0.53330   0.15190   0.00000   0.12300  Uiso   1.00
C353   C     0.46970   0.06030   0.00000   0.11400  Uani   1.00
H354   H     0.49510   0.04320   0.00000   0.13700  Uiso   1.00
In355  In    0.31215   0.83706   0.00000   0.05268  Uani   1.00
S356   S     0.07187   0.69682   0.00000   0.07023  Uani   1.00
O357   O     0.93132   0.61868   0.00000   0.07598  Uani   1.00
O358   O     0.20694   0.79797   0.00000   0.06569  Uani   1.00
O359   O     0.92763   0.52992   0.00000   0.08476  Uani   1.00
C360   C     0.19900   0.74460   0.00000   0.06356  Uani   1.00
O361   O     0.24388   0.73576   0.00000   0.07033  Uani   1.00
C362   C     0.13660   0.69030   0.00000   0.06767  Uani   1.00
C363   C     0.02550   0.61900   0.00000   0.07333  Uani   1.00
C364   C     0.95840   0.58800   0.00000   0.07233  Uani   1.00
C365   C     0.12250   0.63090   0.00000   0.10244  Uani   1.00
H366   H     0.15190   0.61860   0.00000   0.12300  Uiso   1.00
C367   C     0.06030   0.59060   0.00000   0.11400  Uani   1.00
H368   H     0.04320   0.54810   0.00000   0.13700  Uiso   1.00
In369  In    0.16294   0.47509   0.00000   0.05268  Uani   1.00
S370   S     0.30318   0.37505   0.00000   0.07023  Uani   1.00
O371   O     0.38132   0.31264   0.00000   0.07598  Uani   1.00
O372   O     0.20203   0.40897   0.00000   0.06569  Uani   1.00
O373   O     0.47008   0.39771   0.00000   0.08476  Uani   1.00
C374   C     0.25540   0.45440   0.00000   0.06356  Uani   1.00
O375   O     0.26424   0.50812   0.00000   0.07033  Uani   1.00
C376   C     0.30970   0.44630   0.00000   0.06767  Uani   1.00
C377   C     0.38100   0.40650   0.00000   0.07333  Uani   1.00
C378   C     0.41200   0.37040   0.00000   0.07233  Uani   1.00
C379   C     0.36910   0.49160   0.00000   0.10244  Uani   1.00
H380   H     0.38140   0.53330   0.00000   0.12300  Uiso   1.00
C381   C     0.40940   0.46970   0.00000   0.11400  Uani   1.00
H382   H     0.45190   0.49510   0.00000   0.13700  Uiso   1.00
In383  In    0.52491   0.68785   0.00000   0.05268  Uani   1.00
S384   S     0.62495   0.92813   0.00000   0.07023  Uani   1.00
O385   O     0.68736   0.06868   0.00000   0.07598  Uani   1.00
O386   O     0.59103   0.79306   0.00000   0.06569  Uani   1.00
O387   O     0.60229   0.07237   0.00000   0.08476  Uani   1.00
C388   C     0.54560   0.80100   0.00000   0.06356  Uani   1.00
O389   O     0.49188   0.75612   0.00000   0.07033  Uani   1.00
C390   C     0.55370   0.86340   0.00000   0.06767  Uani   1.00
C391   C     0.59350   0.97450   0.00000   0.07333  Uani   1.00
C392   C     0.62960   0.04160   0.00000   0.07233  Uani   1.00
C393   C     0.50840   0.87750   0.00000   0.10244  Uani   1.00
H394   H     0.46670   0.84810   0.00000   0.12300  Uiso   1.00
C395   C     0.53030   0.93970   0.00000   0.11400  Uani   1.00
H396   H     0.50490   0.95680   0.00000   0.13700  Uiso   1.00
In397  In    0.16294   0.68785   0.50000   0.05268  Uani   1.00
S398   S     0.30318   0.92813   0.50000   0.07023  Uani   1.00
O399   O     0.38132   0.06868   0.50000   0.07598  Uani   1.00
O400   O     0.20203   0.79306   0.50000   0.06569  Uani   1.00
O401   O     0.47008   0.07237   0.50000   0.08476  Uani   1.00
C402   C     0.25540   0.80100   0.50000   0.06356  Uani   1.00
O403   O     0.26424   0.75612   0.50000   0.07033  Uani   1.00
C404   C     0.30970   0.86340   0.50000   0.06767  Uani   1.00
C405   C     0.38100   0.97450   0.50000   0.07333  Uani   1.00
C406   C     0.41200   0.04160   0.50000   0.07233  Uani   1.00
C407   C     0.36910   0.87750   0.50000   0.10244  Uani   1.00
H408   H     0.38140   0.84810   0.50000   0.12300  Uiso   1.00
C409   C     0.40940   0.93970   0.50000   0.11400  Uani   1.00
H410   H     0.45190   0.95680   0.50000   0.13700  Uiso   1.00
In411  In    0.52491   0.83706   0.50000   0.05268  Uani   1.00
S412   S     0.62495   0.69682   0.50000   0.07023  Uani   1.00
O413   O     0.68736   0.61868   0.50000   0.07598  Uani   1.00
O414   O     0.59103   0.79797   0.50000   0.06569  Uani   1.00
O415   O     0.60229   0.52992   0.50000   0.08476  Uani   1.00
C416   C     0.54560   0.74460   0.50000   0.06356  Uani   1.00
O417   O     0.49188   0.73576   0.50000   0.07033  Uani   1.00
C418   C     0.55370   0.69030   0.50000   0.06767  Uani   1.00
C419   C     0.59350   0.61900   0.50000   0.07333  Uani   1.00
C420   C     0.62960   0.58800   0.50000   0.07233  Uani   1.00
C421   C     0.50840   0.63090   0.50000   0.10244  Uani   1.00
H422   H     0.46670   0.61860   0.50000   0.12300  Uiso   1.00
C423   C     0.53030   0.59060   0.50000   0.11400  Uani   1.00
H424   H     0.50490   0.54810   0.50000   0.13700  Uiso   1.00
In425  In    0.31215   0.47509   0.50000   0.05268  Uani   1.00
S426   S     0.07187   0.37505   0.50000   0.07023  Uani   1.00
O427   O     0.93132   0.31264   0.50000   0.07598  Uani   1.00
O428   O     0.20694   0.40897   0.50000   0.06569  Uani   1.00
O429   O     0.92763   0.39771   0.50000   0.08476  Uani   1.00
C430   C     0.19900   0.45440   0.50000   0.06356  Uani   1.00
O431   O     0.24388   0.50812   0.50000   0.07033  Uani   1.00
C432   C     0.13660   0.44630   0.50000   0.06767  Uani   1.00
C433   C     0.02550   0.40650   0.50000   0.07333  Uani   1.00
C434   C     0.95840   0.37040   0.50000   0.07233  Uani   1.00
C435   C     0.12250   0.49160   0.50000   0.10244  Uani   1.00
H436   H     0.15190   0.53330   0.50000   0.12300  Uiso   1.00
C437   C     0.06030   0.46970   0.50000   0.11400  Uani   1.00
H438   H     0.04320   0.49510   0.50000   0.13700  Uiso   1.00
In439  In    0.83706   0.31215   0.50000   0.05268  Uani   1.00
S440   S     0.69682   0.07187   0.50000   0.07023  Uani   1.00
O441   O     0.61868   0.93132   0.50000   0.07598  Uani   1.00
O442   O     0.79797   0.20694   0.50000   0.06569  Uani   1.00
O443   O     0.52992   0.92763   0.50000   0.08476  Uani   1.00
C444   C     0.74460   0.19900   0.50000   0.06356  Uani   1.00
O445   O     0.73576   0.24388   0.50000   0.07033  Uani   1.00
C446   C     0.69030   0.13660   0.50000   0.06767  Uani   1.00
C447   C     0.61900   0.02550   0.50000   0.07333  Uani   1.00
C448   C     0.58800   0.95840   0.50000   0.07233  Uani   1.00
C449   C     0.63090   0.12250   0.50000   0.10244  Uani   1.00
H450   H     0.61860   0.15190   0.50000   0.12300  Uiso   1.00
C451   C     0.59060   0.06030   0.50000   0.11400  Uani   1.00
H452   H     0.54810   0.04320   0.50000   0.13700  Uiso   1.00
In453  In    0.47509   0.16294   0.50000   0.05268  Uani   1.00
S454   S     0.37505   0.30318   0.50000   0.07023  Uani   1.00
O455   O     0.31264   0.38132   0.50000   0.07598  Uani   1.00
O456   O     0.40897   0.20203   0.50000   0.06569  Uani   1.00
O457   O     0.39771   0.47008   0.50000   0.08476  Uani   1.00
C458   C     0.45440   0.25540   0.50000   0.06356  Uani   1.00
O459   O     0.50812   0.26424   0.50000   0.07033  Uani   1.00
C460   C     0.44630   0.30970   0.50000   0.06767  Uani   1.00
C461   C     0.40650   0.38100   0.50000   0.07333  Uani   1.00
C462   C     0.37040   0.41200   0.50000   0.07233  Uani   1.00
C463   C     0.49160   0.36910   0.50000   0.10244  Uani   1.00
H464   H     0.53330   0.38140   0.50000   0.12300  Uiso   1.00
C465   C     0.46970   0.40940   0.50000   0.11400  Uani   1.00
H466   H     0.49510   0.45190   0.50000   0.13700  Uiso   1.00
In467  In    0.68785   0.52491   0.50000   0.05268  Uani   1.00
S468   S     0.92813   0.62495   0.50000   0.07023  Uani   1.00
O469   O     0.06868   0.68736   0.50000   0.07598  Uani   1.00
O470   O     0.79306   0.59103   0.50000   0.06569  Uani   1.00
O471   O     0.07237   0.60229   0.50000   0.08476  Uani   1.00
C472   C     0.80100   0.54560   0.50000   0.06356  Uani   1.00
O473   O     0.75612   0.49188   0.50000   0.07033  Uani   1.00
C474   C     0.86340   0.55370   0.50000   0.06767  Uani   1.00
C475   C     0.97450   0.59350   0.50000   0.07333  Uani   1.00
C476   C     0.04160   0.62960   0.50000   0.07233  Uani   1.00
C477   C     0.87750   0.50840   0.50000   0.10244  Uani   1.00
H478   H     0.84810   0.46670   0.50000   0.12300  Uiso   1.00
C479   C     0.93970   0.53030   0.50000   0.11400  Uani   1.00
H480   H     0.95680   0.50490   0.50000   0.13700  Uiso   1.00
loop_
_atom_site_aniso_label
_atom_site_aniso_U_11
_atom_site_aniso_U_22
_atom_site_aniso_U_33
_atom_site_aniso_U_12
_atom_site_aniso_U_13
_atom_site_aniso_U_23
O1        0.09850   0.10500   0.05560   0.05910   0.00640   0.00120
O2        0.08270   0.10380   0.05540   0.05060   0.00540  -0.00620
C3        0.07700   0.08900   0.06300   0.03700   0.00800   0.00230
C4        0.10100   0.11600   0.05530   0.06000   0.01400   0.00200
C5        0.12500   0.18100   0.06300   0.09800   0.00600  -0.00500
C7        0.14500   0.16200   0.06300   0.10600   0.02400   0.01900
C9        0.14100   0.21000   0.05900   0.11600   0.00300  -0.00300
C11       0.16500   0.17900   0.06500   0.12200   0.03400   0.01600
C13       0.11600   0.14300   0.05900   0.07100   0.01800   0.00200
O14       0.10500   0.08530   0.05560   0.04590  -0.00120   0.00520
O15       0.10380   0.08530   0.05540   0.05320   0.00620   0.01160
C16       0.08900   0.09200   0.06300   0.05200  -0.00230   0.00570
C17       0.11600   0.09700   0.05530   0.05600  -0.00200   0.01200
C18       0.18100   0.11000   0.06300   0.08300   0.00500   0.01100
C20       0.16200   0.09500   0.06300   0.05600  -0.01900   0.00500
C22       0.21000   0.11900   0.05900   0.09400   0.00300   0.00600
C24       0.17900   0.10000   0.06500   0.05700  -0.01600   0.01800
C26       0.14300   0.11700   0.05900   0.07200  -0.00200   0.01600
O27       0.08530   0.09850   0.05560   0.03940  -0.00520  -0.00640
O28       0.08530   0.08270   0.05540   0.03210  -0.01160  -0.00540
C29       0.09200   0.07700   0.06300   0.04000  -0.00570  -0.00800
C30       0.09700   0.10100   0.05530   0.04100  -0.01200  -0.01400
C31       0.11000   0.12500   0.06300   0.02700  -0.01100  -0.00600
C33       0.09500   0.14500   0.06300   0.03900  -0.00500  -0.02400
C35       0.11900   0.14100   0.05900   0.02500  -0.00600  -0.00300
C37       0.10000   0.16500   0.06500   0.04300  -0.01800  -0.03400
C39       0.11700   0.11600   0.05900   0.04500  -0.01600  -0.01800
O40       0.09850   0.10500   0.05560   0.05910  -0.00640  -0.00120
O41       0.08270   0.10380   0.05540   0.05060  -0.00540   0.00620
C42       0.07700   0.08900   0.06300   0.03700  -0.00800  -0.00230
C43       0.10100   0.11600   0.05530   0.06000  -0.01400  -0.00200
C44       0.12500   0.18100   0.06300   0.09800  -0.00600   0.00500
C46       0.14500   0.16200   0.06300   0.10600  -0.02400  -0.01900
C48       0.14100   0.21000   0.05900   0.11600  -0.00300   0.00300
C50       0.16500   0.17900   0.06500   0.12200  -0.03400  -0.01600
C52       0.11600   0.14300   0.05900   0.07100  -0.01800  -0.00200
O53       0.10500   0.08530   0.05560   0.04590   0.00120  -0.00520
O54       0.10380   0.08530   0.05540   0.05320  -0.00620  -0.01160
C55       0.08900   0.09200   0.06300   0.05200   0.00230  -0.00570
C56       0.11600   0.09700   0.05530   0.05600   0.00200  -0.01200
C57       0.18100   0.11000   0.06300   0.08300  -0.00500  -0.01100
C59       0.16200   0.09500   0.06300   0.05600   0.01900  -0.00500
C61       0.21000   0.11900   0.05900   0.09400  -0.00300  -0.00600
C63       0.17900   0.10000   0.06500   0.05700   0.01600  -0.01800
C65       0.14300   0.11700   0.05900   0.07200   0.00200  -0.01600
O66       0.08530   0.09850   0.05560   0.03940   0.00520   0.00640
O67       0.08530   0.08270   0.05540   0.03210   0.01160   0.00540
C68       0.09200   0.07700   0.06300   0.04000   0.00570   0.00800
C69       0.09700   0.10100   0.05530   0.04100   0.01200   0.01400
C70       0.11000   0.12500   0.06300   0.02700   0.01100   0.00600
C72       0.09500   0.14500   0.06300   0.03900   0.00500   0.02400
C74       0.11900   0.14100   0.05900   0.02500   0.00600   0.00300
C76       0.10000   0.16500   0.06500   0.04300   0.01800   0.03400
C78       0.11700   0.11600   0.05900   0.04500   0.01600   0.01800
O79       0.10500   0.09850   0.05560   0.05910  -0.00120  -0.00640
O80       0.10380   0.08270   0.05540   0.05060   0.00620  -0.00540
C81       0.08900   0.07700   0.06300   0.03700  -0.00230  -0.00800
C82       0.11600   0.10100   0.05530   0.06000  -0.00200  -0.01400
C83       0.18100   0.12500   0.06300   0.09800   0.00500  -0.00600
C85       0.16200   0.14500   0.06300   0.10600  -0.01900  -0.02400
C87       0.21000   0.14100   0.05900   0.11600   0.00300  -0.00300
C89       0.17900   0.16500   0.06500   0.12200  -0.01600  -0.03400
C91       0.14300   0.11600   0.05900   0.07100  -0.00200  -0.01800
O92       0.08530   0.10500   0.05560   0.04590  -0.00520   0.00120
O93       0.08530   0.10380   0.05540   0.05320  -0.01160  -0.00620
C94       0.09200   0.08900   0.06300   0.05200  -0.00570   0.00230
C95       0.09700   0.11600   0.05530   0.05600  -0.01200   0.00200
C96       0.11000   0.18100   0.06300   0.08300  -0.01100  -0.00500
C98       0.09500   0.16200   0.06300   0.05600  -0.00500   0.01900
C100      0.11900   0.21000   0.05900   0.09400  -0.00600  -0.00300
C102      0.10000   0.17900   0.06500   0.05700  -0.01800   0.01600
C104      0.11700   0.14300   0.05900   0.07200  -0.01600   0.00200
O105      0.09850   0.08530   0.05560   0.03940   0.00640   0.00520
O106      0.08270   0.08530   0.05540   0.03210   0.00540   0.01160
C107      0.07700   0.09200   0.06300   0.04000   0.00800   0.00570
C108      0.10100   0.09700   0.05530   0.04100   0.01400   0.01200
C109      0.12500   0.11000   0.06300   0.02700   0.00600   0.01100
C111      0.14500   0.09500   0.06300   0.03900   0.02400   0.00500
C113      0.14100   0.11900   0.05900   0.02500   0.00300   0.00600
C115      0.16500   0.10000   0.06500   0.04300   0.03400   0.01800
C117      0.11600   0.11700   0.05900   0.04500   0.01800   0.01600
O118      0.10500   0.09850   0.05560   0.05910   0.00120   0.00640
O119      0.10380   0.08270   0.05540   0.05060  -0.00620   0.00540
C120      0.08900   0.07700   0.06300   0.03700   0.00230   0.00800
C121      0.11600   0.10100   0.05530   0.06000   0.00200   0.01400
C122      0.18100   0.12500   0.06300   0.09800  -0.00500   0.00600
C124      0.16200   0.14500   0.06300   0.10600   0.01900   0.02400
C126      0.21000   0.14100   0.05900   0.11600  -0.00300   0.00300
C128      0.17900   0.16500   0.06500   0.12200   0.01600   0.03400
C130      0.14300   0.11600   0.05900   0.07100   0.00200   0.01800
O131      0.08530   0.10500   0.05560   0.04590   0.00520  -0.00120
O132      0.08530   0.10380   0.05540   0.05320   0.01160   0.00620
C133      0.09200   0.08900   0.06300   0.05200   0.00570  -0.00230
C134      0.09700   0.11600   0.05530   0.05600   0.01200  -0.00200
C135      0.11000   0.18100   0.06300   0.08300   0.01100   0.00500
C137      0.09500   0.16200   0.06300   0.05600   0.00500  -0.01900
C139      0.11900   0.21000   0.05900   0.09400   0.00600   0.00300
C141      0.10000   0.17900   0.06500   0.05700   0.01800  -0.01600
C143      0.11700   0.14300   0.05900   0.07200   0.01600  -0.00200
O144      0.09850   0.08530   0.05560   0.03940  -0.00640  -0.00520
O145      0.08270   0.08530   0.05540   0.03210  -0.00540  -0.01160
C146      0.07700   0.09200   0.06300   0.04000  -0.00800  -0.00570
C147      0.10100   0.09700   0.05530   0.04100  -0.01400  -0.01200
C148      0.12500   0.11000   0.06300   0.02700  -0.00600  -0.01100
C150      0.14500   0.09500   0.06300   0.03900  -0.02400  -0.00500
C152      0.14100   0.11900   0.05900   0.02500  -0.00300  -0.00600
C154      0.16500   0.10000   0.06500   0.04300  -0.03400  -0.01800
C156      0.11600   0.11700   0.05900   0.04500  -0.01800  -0.01600
O157      0.09850   0.10500   0.05560   0.05910   0.00640   0.00120
O158      0.08270   0.10380   0.05540   0.05060   0.00540  -0.00620
C159      0.07700   0.08900   0.06300   0.03700   0.00800   0.00230
C160      0.10100   0.11600   0.05530   0.06000   0.01400   0.00200
C161      0.12500   0.18100   0.06300   0.09800   0.00600  -0.00500
C163      0.14500   0.16200   0.06300   0.10600   0.02400   0.01900
C165      0.14100   0.21000   0.05900   0.11600   0.00300  -0.00300
C167      0.16500   0.17900   0.06500   0.12200   0.03400   0.01600
C169      0.11600   0.14300   0.05900   0.07100   0.01800   0.00200
O170      0.10500   0.08530   0.05560   0.04590  -0.00120   0.00520
O171      0.10380   0.08530   0.05540   0.05320   0.00620   0.01160
C172      0.08900   0.09200   0.06300   0.05200  -0.00230   0.00570
C173      0.11600   0.09700   0.05530   0.05600  -0.00200   0.01200
C174      0.18100   0.11000   0.06300   0.08300   0.00500   0.01100
C176      0.16200   0.09500   0.06300   0.05600  -0.01900   0.00500
C178      0.21000   0.11900   0.05900   0.09400   0.00300   0.00600
C180      0.17900   0.10000   0.06500   0.05700  -0.01600   0.01800
C182      0.14300   0.11700   0.05900   0.07200  -0.00200   0.01600
O183      0.08530   0.09850   0.05560   0.03940  -0.00520  -0.00640
O184      0.08530   0.08270   0.05540   0.03210  -0.01160  -0.00540
C185      0.09200   0.07700   0.06300   0.04000  -0.00570  -0.00800
C186      0.09700   0.10100   0.05530   0.04100  -0.01200  -0.01400
C187      0.11000   0.12500   0.06300   0.02700  -0.01100  -0.00600
C189      0.09500   0.14500   0.06300   0.03900  -0.00500  -0.02400
C191      0.11900   0.14100   0.05900   0.02500  -0.00600  -0.00300
C193      0.10000   0.16500   0.06500   0.04300  -0.01800  -0.03400
C195      0.11700   0.11600   0.05900   0.04500  -0.01600  -0.01800
O196      0.09850   0.10500   0.05560   0.05910  -0.00640  -0.00120
O197      0.08270   0.10380   0.05540   0.05060  -0.00540   0.00620
C198      0.07700   0.08900   0.06300   0.03700  -0.00800  -0.00230
C199      0.10100   0.11600   0.05530   0.06000  -0.01400  -0.00200
C200      0.12500   0.18100   0.06300   0.09800  -0.00600   0.00500
C202      0.14500   0.16200   0.06300   0.10600  -0.02400  -0.01900
C204      0.14100   0.21000   0.05900   0.11600  -0.00300   0.00300
C206      0.16500   0.17900   0.06500   0.12200  -0.03400  -0.01600
C208      0.11600   0.14300   0.05900   0.07100  -0.01800  -0.00200
O209      0.10500   0.08530   0.05560   0.04590   0.00120  -0.00520
O210      0.10380   0.08530   0.05540   0.05320  -0.00620  -0.01160
C211      0.08900   0.09200   0.06300   0.05200   0.00230  -0.00570
C212      0.11600   0.09700   0.05530   0.05600   0.00200  -0.01200
C213      0.18100   0.11000   0.06300   0.08300  -0.00500  -0.01100
C215      0.16200   0.09500   0.06300   0.05600   0.01900  -0.00500
C217      0.21000   0.11900   0.05900   0.09400  -0.00300  -0.00600
C219      0.17900   0.10000   0.06500   0.05700   0.01600  -0.01800
C221      0.14300   0.11700   0.05900   0.07200   0.00200  -0.01600
O222      0.08530   0.09850   0.05560   0.03940   0.00520   0.00640
O223      0.08530   0.08270   0.05540   0.03210   0.01160   0.00540
C224      0.09200   0.07700   0.06300   0.04000   0.00570   0.00800
C225      0.09700   0.10100   0.05530   0.04100   0.01200   0.01400
C226      0.11000   0.12500   0.06300   0.02700   0.01100   0.00600
C228      0.09500   0.14500   0.06300   0.03900   0.00500   0.02400
C230      0.11900   0.14100   0.05900   0.02500   0.00600   0.00300
C232      0.10000   0.16500   0.06500   0.04300   0.01800   0.03400
C234      0.11700   0.11600   0.05900   0.04500   0.01600   0.01800
O235      0.10500   0.09850   0.05560   0.05910  -0.00120  -0.00640
O236      0.10380   0.08270   0.05540   0.05060   0.00620  -0.00540
C237      0.08900   0.07700   0.06300   0.03700  -0.00230  -0.00800
C238      0.11600   0.10100   0.05530   0.06000  -0.00200  -0.01400
C239      0.18100   0.12500   0.06300   0.09800   0.00500  -0.00600
C241      0.16200   0.14500   0.06300   0.10600  -0.01900  -0.02400
C243      0.21000   0.14100   0.05900   0.11600   0.00300  -0.00300
C245      0.17900   0.16500   0.06500   0.12200  -0.01600  -0.03400
C247      0.14300   0.11600   0.05900   0.07100  -0.00200  -0.01800
O248      0.08530   0.10500   0.05560   0.04590  -0.00520   0.00120
O249      0.08530   0.10380   0.05540   0.05320  -0.01160  -0.00620
C250      0.09200   0.08900   0.06300   0.05200  -0.00570   0.00230
C251      0.09700   0.11600   0.05530   0.05600  -0.01200   0.00200
C252      0.11000   0.18100   0.06300   0.08300  -0.01100  -0.00500
C254      0.09500   0.16200   0.06300   0.05600  -0.00500   0.01900
C256      0.11900   0.21000   0.05900   0.09400  -0.00600  -0.00300
C258      0.10000   0.17900   0.06500   0.05700  -0.01800   0.01600
C260      0.11700   0.14300   0.05900   0.07200  -0.01600   0.00200
O261      0.09850   0.08530   0.05560   0.03940   0.00640   0.00520
O262      0.08270   0.08530   0.05540   0.03210   0.00540   0.01160
C263      0.07700   0.09200   0.06300   0.04000   0.00800   0.00570
C264      0.10100   0.09700   0.05530   0.04100   0.01400   0.01200
C265      0.12500   0.11000   0.06300   0.02700   0.00600   0.01100
C267      0.14500   0.09500   0.06300   0.03900   0.02400   0.00500
C269      0.14100   0.11900   0.05900   0.02500   0.00300   0.00600
C271      0.16500   0.10000   0.06500   0.04300   0.03400   0.01800
C273      0.11600   0.11700   0.05900   0.04500   0.01800   0.01600
O274      0.10500   0.09850   0.05560   0.05910   0.00120   0.00640
O275      0.10380   0.08270   0.05540   0.05060  -0.00620   0.00540
C276      0.08900   0.07700   0.06300   0.03700   0.00230   0.00800
C277      0.11600   0.10100   0.05530   0.06000   0.00200   0.01400
C278      0.18100   0.12500   0.06300   0.09800  -0.00500   0.00600
C280      0.16200   0.14500   0.06300   0.10600   0.01900   0.02400
C282      0.21000   0.14100   0.05900   0.11600  -0.00300   0.00300
C284      0.17900   0.16500   0.06500   0.12200   0.01600   0.03400
C286      0.14300   0.11600   0.05900   0.07100   0.00200   0.01800
O287      0.08530   0.10500   0.05560   0.04590   0.00520  -0.00120
O288      0.08530   0.10380   0.05540   0.05320   0.01160   0.00620
C289      0.09200   0.08900   0.06300   0.05200   0.00570  -0.00230
C290      0.09700   0.11600   0.05530   0.05600   0.01200  -0.00200
C291      0.11000   0.18100   0.06300   0.08300   0.01100   0.00500
C293      0.09500   0.16200   0.06300   0.05600   0.00500  -0.01900
C295      0.11900   0.21000   0.05900   0.09400   0.00600   0.00300
C297      0.10000   0.17900   0.06500   0.05700   0.01800  -0.01600
C299      0.11700   0.14300   0.05900   0.07200   0.01600  -0.00200
O300      0.09850   0.08530   0.05560   0.03940  -0.00640  -0.00520
O301      0.08270   0.08530   0.05540   0.03210  -0.00540  -0.01160
C302      0.07700   0.09200   0.06300   0.04000  -0.00800  -0.00570
C303      0.10100   0.09700   0.05530   0.04100  -0.01400  -0.01200
C304      0.12500   0.11000   0.06300   0.02700  -0.00600  -0.01100
C306      0.14500   0.09500   0.06300   0.03900  -0.02400  -0.00500
C308      0.14100   0.11900   0.05900   0.02500  -0.00300  -0.00600
C310      0.16500   0.10000   0.06500   0.04300  -0.03400  -0.01800
C312      0.11600   0.11700   0.05900   0.04500  -0.01800  -0.01600
In313     0.05297   0.05208   0.05187   0.02542   0.00000   0.00000
S314      0.05520   0.05750   0.09990   0.02960   0.00000   0.00000
O315      0.06050   0.06490   0.10100   0.03020   0.00000   0.00000
O316      0.05150   0.05250   0.08800   0.02220   0.00000   0.00000
O317      0.04950   0.05790   0.13800   0.02020   0.00000   0.00000
C318      0.05900   0.06200   0.06400   0.02600   0.00000   0.00000
O319      0.04980   0.06800   0.09100   0.02780   0.00000   0.00000
C320      0.05900   0.06000   0.08300   0.02900   0.00000   0.00000
C321      0.05500   0.06200   0.10000   0.02700   0.00000   0.00000
C322      0.05900   0.07400   0.08100   0.03100   0.00000   0.00000
C323      0.05900   0.07000   0.18600   0.03800   0.00000   0.00000
C325      0.06000   0.04800   0.22600   0.02100   0.00000   0.00000
In327     0.05208   0.05421   0.05187   0.02666   0.00000   0.00000
S328      0.05750   0.05350   0.09990   0.02790   0.00000   0.00000
O329      0.06490   0.06500   0.10100   0.03470   0.00000   0.00000
O330      0.05250   0.05960   0.08800   0.03030   0.00000   0.00000
O331      0.05790   0.06700   0.13800   0.03770   0.00000   0.00000
C332      0.06200   0.06900   0.06400   0.03600   0.00000   0.00000
O333      0.06800   0.06220   0.09100   0.04020   0.00000   0.00000
C334      0.06000   0.06100   0.08300   0.03100   0.00000   0.00000
C335      0.06200   0.06300   0.10000   0.03500   0.00000   0.00000
C336      0.07400   0.07100   0.08100   0.04300   0.00000   0.00000
C337      0.07000   0.05300   0.18600   0.03200   0.00000   0.00000
C339      0.04800   0.06600   0.22600   0.02700   0.00000   0.00000
In341     0.05421   0.05297   0.05187   0.02755   0.00000   0.00000
S342      0.05350   0.05520   0.09990   0.02560   0.00000   0.00000
O343      0.06500   0.06050   0.10100   0.03030   0.00000   0.00000
O344      0.05960   0.05150   0.08800   0.02930   0.00000   0.00000
O345      0.06700   0.04950   0.13800   0.02930   0.00000   0.00000
C346      0.06900   0.05900   0.06400   0.03300   0.00000   0.00000
O347      0.06220   0.04980   0.09100   0.02200   0.00000   0.00000
C348      0.06100   0.05900   0.08300   0.03000   0.00000   0.00000
C349      0.06300   0.05500   0.10000   0.02800   0.00000   0.00000
C350      0.07100   0.05900   0.08100   0.02800   0.00000   0.00000
C351      0.05300   0.05900   0.18600   0.02100   0.00000   0.00000
C353      0.06600   0.06000   0.22600   0.03900   0.00000   0.00000
In355     0.05297   0.05208   0.05187   0.02542   0.00000   0.00000
S356      0.05520   0.05750   0.09990   0.02960   0.00000   0.00000
O357      0.06050   0.06490   0.10100   0.03020   0.00000   0.00000
O358      0.05150   0.05250   0.08800   0.02220   0.00000   0.00000
O359      0.04950   0.05790   0.13800   0.02020   0.00000   0.00000
C360      0.05900   0.06200   0.06400   0.02600   0.00000   0.00000
O361      0.04980   0.06800   0.09100   0.02780   0.00000   0.00000
C362      0.05900   0.06000   0.08300   0.02900   0.00000   0.00000
C363      0.05500   0.06200   0.10000   0.02700   0.00000   0.00000
C364      0.05900   0.07400   0.08100   0.03100   0.00000   0.00000
C365      0.05900   0.07000   0.18600   0.03800   0.00000   0.00000
C367      0.06000   0.04800   0.22600   0.02100   0.00000   0.00000
In369     0.05208   0.05421   0.05187   0.02666   0.00000   0.00000
S370      0.05750   0.05350   0.09990   0.02790   0.00000   0.00000
O371      0.06490   0.06500   0.10100   0.03470   0.00000   0.00000
O372      0.05250   0.05960   0.08800   0.03030   0.00000   0.00000
O373      0.05790   0.06700   0.13800   0.03770   0.00000   0.00000
C374      0.06200   0.06900   0.06400   0.03600   0.00000   0.00000
O375      0.06800   0.06220   0.09100   0.04020   0.00000   0.00000
C376      0.06000   0.06100   0.08300   0.03100   0.00000   0.00000
C377      0.06200   0.06300   0.10000   0.03500   0.00000   0.00000
C378      0.07400   0.07100   0.08100   0.04300   0.00000   0.00000
C379      0.07000   0.05300   0.18600   0.03200   0.00000   0.00000
C381      0.04800   0.06600   0.22600   0.02700   0.00000   0.00000
In383     0.05421   0.05297   0.05187   0.02755   0.00000   0.00000
S384      0.05350   0.05520   0.09990   0.02560   0.00000   0.00000
O385      0.06500   0.06050   0.10100   0.03030   0.00000   0.00000
O386      0.05960   0.05150   0.08800   0.02930   0.00000   0.00000
O387      0.06700   0.04950   0.13800   0.02930   0.00000   0.00000
C388      0.06900   0.05900   0.06400   0.03300   0.00000   0.00000
O389      0.06220   0.04980   0.09100   0.02200   0.00000   0.00000
C390      0.06100   0.05900   0.08300   0.03000   0.00000   0.00000
C391      0.06300   0.05500   0.10000   0.02800   0.00000   0.00000
C392      0.07100   0.05900   0.08100   0.02800   0.00000   0.00000
C393      0.05300   0.05900   0.18600   0.02100   0.00000   0.00000
C395      0.06600   0.06000   0.22600   0.03900   0.00000   0.00000
In397     0.05208   0.05297   0.05187   0.02542   0.00000   0.00000
S398      0.05750   0.05520   0.09990   0.02960   0.00000   0.00000
O399      0.06490   0.06050   0.10100   0.03020   0.00000   0.00000
O400      0.05250   0.05150   0.08800   0.02220   0.00000   0.00000
O401      0.05790   0.04950   0.13800   0.02020   0.00000   0.00000
C402      0.06200   0.05900   0.06400   0.02600   0.00000   0.00000
O403      0.06800   0.04980   0.09100   0.02780   0.00000   0.00000
C404      0.06000   0.05900   0.08300   0.02900   0.00000   0.00000
C405      0.06200   0.05500   0.10000   0.02700   0.00000   0.00000
C406      0.07400   0.05900   0.08100   0.03100   0.00000   0.00000
C407      0.07000   0.05900   0.18600   0.03800   0.00000   0.00000
C409      0.04800   0.06000   0.22600   0.02100   0.00000   0.00000
In411     0.05421   0.05208   0.05187   0.02666   0.00000   0.00000
S412      0.05350   0.05750   0.09990   0.02790   0.00000   0.00000
O413      0.06500   0.06490   0.10100   0.03470   0.00000   0.00000
O414      0.05960   0.05250   0.08800   0.03030   0.00000   0.00000
O415      0.06700   0.05790   0.13800   0.03770   0.00000   0.00000
C416      0.06900   0.06200   0.06400   0.03600   0.00000   0.00000
O417      0.06220   0.06800   0.09100   0.04020   0.00000   0.00000
C418      0.06100   0.06000   0.08300   0.03100   0.00000   0.00000
C419      0.06300   0.06200   0.10000   0.03500   0.00000   0.00000
C420      0.07100   0.07400   0.08100   0.04300   0.00000   0.00000
C421      0.05300   0.07000   0.18600   0.03200   0.00000   0.00000
C423      0.06600   0.04800   0.22600   0.02700   0.00000   0.00000
In425     0.05297   0.05421   0.05187   0.02755   0.00000   0.00000
S426      0.05520   0.05350   0.09990   0.02560   0.00000   0.00000
O427      0.06050   0.06500   0.10100   0.03030   0.00000   0.00000
O428      0.05150   0.05960   0.08800   0.02930   0.00000   0.00000
O429      0.04950   0.06700   0.13800   0.02930   0.00000   0.00000
C430      0.05900   0.06900   0.06400   0.03300   0.00000   0.00000
O431      0.04980   0.06220   0.09100   0.02200   0.00000   0.00000
C432      0.05900   0.06100   0.08300   0.03000   0.00000   0.00000
C433      0.05500   0.06300   0.10000   0.02800   0.00000   0.00000
C434      0.05900   0.07100   0.08100   0.02800   0.00000   0.00000
C435      0.05900   0.05300   0.18600   0.02100   0.00000   0.00000
C437      0.06000   0.06600   0.22600   0.03900   0.00000   0.00000
In439     0.05208   0.05297   0.05187   0.02542   0.00000   0.00000
S440      0.05750   0.05520   0.09990   0.02960   0.00000   0.00000
O441      0.06490   0.06050   0.10100   0.03020   0.00000   0.00000
O442      0.05250   0.05150   0.08800   0.02220   0.00000   0.00000
O443      0.05790   0.04950   0.13800   0.02020   0.00000   0.00000
C444      0.06200   0.05900   0.06400   0.02600   0.00000   0.00000
O445      0.06800   0.04980   0.09100   0.02780   0.00000   0.00000
C446      0.06000   0.05900   0.08300   0.02900   0.00000   0.00000
C447      0.06200   0.05500   0.10000   0.02700   0.00000   0.00000
C448      0.07400   0.05900   0.08100   0.03100   0.00000   0.00000
C449      0.07000   0.05900   0.18600   0.03800   0.00000   0.00000
C451      0.04800   0.06000   0.22600   0.02100   0.00000   0.00000
In453     0.05421   0.05208   0.05187   0.02666   0.00000   0.00000
S454      0.05350   0.05750   0.09990   0.02790   0.00000   0.00000
O455      0.06500   0.06490   0.10100   0.03470   0.00000   0.00000
O456      0.05960   0.05250   0.08800   0.03030   0.00000   0.00000
O457      0.06700   0.05790   0.13800   0.03770   0.00000   0.00000
C458      0.06900   0.06200   0.06400   0.03600   0.00000   0.00000
O459      0.06220   0.06800   0.09100   0.04020   0.00000   0.00000
C460      0.06100   0.06000   0.08300   0.03100   0.00000   0.00000
C461      0.06300   0.06200   0.10000   0.03500   0.00000   0.00000
C462      0.07100   0.07400   0.08100   0.04300   0.00000   0.00000
C463      0.05300   0.07000   0.18600   0.03200   0.00000   0.00000
C465      0.06600   0.04800   0.22600   0.02700   0.00000   0.00000
In467     0.05297   0.05421   0.05187   0.02755   0.00000   0.00000
S468      0.05520   0.05350   0.09990   0.02560   0.00000   0.00000
O469      0.06050   0.06500   0.10100   0.03030   0.00000   0.00000
O470      0.05150   0.05960   0.08800   0.02930   0.00000   0.00000
O471      0.04950   0.06700   0.13800   0.02930   0.00000   0.00000
C472      0.05900   0.06900   0.06400   0.03300   0.00000   0.00000
O473      0.04980   0.06220   0.09100   0.02200   0.00000   0.00000
C474      0.05900   0.06100   0.08300   0.03000   0.00000   0.00000
C475      0.05500   0.06300   0.10000   0.02800   0.00000   0.00000
C476      0.05900   0.07100   0.08100   0.02800   0.00000   0.00000
C477      0.05900   0.05300   0.18600   0.02100   0.00000   0.00000
C479      0.06000   0.06600   0.22600   0.03900   0.00000   0.00000
loop_
_geom_bond_atom_site_label_1
_geom_bond_atom_site_label_2
_geom_bond_distance
_geom_bond_site_symmetry_2
_ccdc_geom_bond_type
O1     In313   2.258   .     S
O1     C3      1.269   .     S
O2     In313   2.316   .     S
O2     C3      1.244   .     S
C3     C4      1.494   .     S
C4     C5      1.387   .     S
C4     C7      1.375   .     S
C5     H6      0.931   .     S
C5     C9      1.396   .     S
C7     H8      0.930   .     S
C7     C11     1.388   .     S
C9     H10     0.930   .     S
C9     C13     1.378   .     S
C11    H12     0.930   .     S
C11    C13     1.377   .     S
C13    C143    1.495   .     S
O14    In327   2.258   .     S
O14    C16     1.269   .     S
O15    In327   2.316   .     S
O15    C16     1.244   .     S
C16    C17     1.494   .     S
C17    C18     1.387   .     S
C17    C20     1.375   .     S
C18    H19     0.931   .     S
C18    C22     1.396   .     S
C20    H21     0.930   .     S
C20    C24     1.388   .     S
C22    H23     0.930   .     S
C22    C26     1.378   .     S
C24    H25     0.930   .     S
C24    C26     1.377   .     S
C26    C130    1.495   .     S
O27    In341   2.258   .     S
O27    C29     1.269   .     S
O28    In341   2.316   .     S
O28    C29     1.244   .     S
C29    C30     1.494   .     S
C30    C31     1.387   .     S
C30    C33     1.375   .     S
C31    H32     0.931   .     S
C31    C35     1.396   .     S
C33    H34     0.930   .     S
C33    C37     1.388   .     S
C35    H36     0.930   .     S
C35    C39     1.378   .     S
C37    H38     0.930   .     S
C37    C39     1.377   .     S
C39    C156    1.495   .     S
O40    In355   2.258   .     S
O40    C42     1.269   .     S
O41    In355   2.316   .     S
O41    C42     1.244   .     S
C42    C43     1.494   .     S
C43    C44     1.387   .     S
C43    C46     1.375   .     S
C44    H45     0.931   .     S
C44    C48     1.396   .     S
C46    H47     0.930   .     S
C46    C50     1.388   .     S
C48    H49     0.930   .     S
C48    C52     1.378   .     S
C50    H51     0.930   .     S
C50    C52     1.377   .     S
C52    C104    1.495   .     S
O53    In369   2.258   .     S
O53    C55     1.269   .     S
O54    In369   2.316   .     S
O54    C55     1.244   .     S
C55    C56     1.494   .     S
C56    C57     1.387   .     S
C56    C59     1.375   .     S
C57    H58     0.931   .     S
C57    C61     1.396   .     S
C59    H60     0.930   .     S
C59    C63     1.388   .     S
C61    H62     0.930   .     S
C61    C65     1.378   .     S
C63    H64     0.930   .     S
C63    C65     1.377   .     S
C65    C91     1.495   .     S
O66    In383   2.258   .     S
O66    C68     1.269   .     S
O67    In383   2.316   .     S
O67    C68     1.244   .     S
C68    C69     1.494   .     S
C69    C70     1.387   .     S
C69    C72     1.375   .     S
C70    H71     0.931   .     S
C70    C74     1.396   .     S
C72    H73     0.930   .     S
C72    C76     1.388   .     S
C74    H75     0.930   .     S
C74    C78     1.378   .     S
C76    H77     0.930   .     S
C76    C78     1.377   .     S
C78    C117    1.495   .     S
O79    In397   2.258   .     S
O79    C81     1.269   .     S
O80    In397   2.316   .     S
O80    C81     1.244   .     S
C81    C82     1.494   .     S
C82    C83     1.387   .     S
C82    C85     1.375   .     S
C83    H84     0.931   .     S
C83    C87     1.396   .     S
C85    H86     0.930   .     S
C85    C89     1.388   .     S
C87    H88     0.930   .     S
C87    C91     1.378   .     S
C89    H90     0.930   .     S
C89    C91     1.377   .     S
O92    In411   2.258   .     S
O92    C94     1.269   .     S
O93    In411   2.316   .     S
O93    C94     1.244   .     S
C94    C95     1.494   .     S
C95    C96     1.387   .     S
C95    C98     1.375   .     S
C96    H97     0.931   .     S
C96    C100    1.396   .     S
C98    H99     0.930   .     S
C98    C102    1.388   .     S
C100   H101    0.930   .     S
C100   C104    1.378   .     S
C102   H103    0.930   .     S
C102   C104    1.377   .     S
O105   In425   2.258   .     S
O105   C107    1.269   .     S
O106   In425   2.316   .     S
O106   C107    1.244   .     S
C107   C108    1.494   .     S
C108   C109    1.387   .     S
C108   C111    1.375   .     S
C109   H110    0.931   .     S
C109   C113    1.396   .     S
C111   H112    0.930   .     S
C111   C115    1.388   .     S
C113   H114    0.930   .     S
C113   C117    1.378   .     S
C115   H116    0.930   .     S
C115   C117    1.377   .     S
O118   In439   2.258   .     S
O118   C120    1.269   .     S
O119   In439   2.316   .     S
O119   C120    1.244   .     S
C120   C121    1.494   .     S
C121   C122    1.387   .     S
C121   C124    1.375   .     S
C122   H123    0.931   .     S
C122   C126    1.396   .     S
C124   H125    0.930   .     S
C124   C128    1.388   .     S
C126   H127    0.930   .     S
C126   C130    1.378   .     S
C128   H129    0.930   .     S
C128   C130    1.377   .     S
O131   In453   2.258   .     S
O131   C133    1.269   .     S
O132   In453   2.316   .     S
O132   C133    1.244   .     S
C133   C134    1.494   .     S
C134   C135    1.387   .     S
C134   C137    1.375   .     S
C135   H136    0.931   .     S
C135   C139    1.396   .     S
C137   H138    0.930   .     S
C137   C141    1.388   .     S
C139   H140    0.930   .     S
C139   C143    1.378   .     S
C141   H142    0.930   .     S
C141   C143    1.377   .     S
O144   In467   2.258   .     S
O144   C146    1.269   .     S
O145   In467   2.316   .     S
O145   C146    1.244   .     S
C146   C147    1.494   .     S
C147   C148    1.387   .     S
C147   C150    1.375   .     S
C148   H149    0.931   .     S
C148   C152    1.396   .     S
C150   H151    0.930   .     S
C150   C154    1.388   .     S
C152   H153    0.930   .     S
C152   C156    1.378   .     S
C154   H155    0.930   .     S
C154   C156    1.377   .     S
O157   In355   2.258   1_556 S
O157   C159    1.269   .     S
O158   In355   2.316   1_556 S
O158   C159    1.244   .     S
C159   C160    1.494   .     S
C160   C161    1.387   .     S
C160   C163    1.375   .     S
C161   H162    0.931   .     S
C161   C165    1.396   .     S
C163   H164    0.930   .     S
C163   C167    1.388   .     S
C165   H166    0.930   .     S
C165   C169    1.378   .     S
C167   H168    0.930   .     S
C167   C169    1.377   .     S
C169   C299    1.495   .     S
O170   In369   2.258   1_556 S
O170   C172    1.269   .     S
O171   In369   2.316   1_556 S
O171   C172    1.244   .     S
C172   C173    1.494   .     S
C173   C174    1.387   .     S
C173   C176    1.375   .     S
C174   H175    0.931   .     S
C174   C178    1.396   .     S
C176   H177    0.930   .     S
C176   C180    1.388   .     S
C178   H179    0.930   .     S
C178   C182    1.378   .     S
C180   H181    0.930   .     S
C180   C182    1.377   .     S
C182   C286    1.495   .     S
O183   In383   2.258   1_556 S
O183   C185    1.269   .     S
O184   In383   2.316   1_556 S
O184   C185    1.244   .     S
C185   C186    1.494   .     S
C186   C187    1.387   .     S
C186   C189    1.375   .     S
C187   H188    0.931   .     S
C187   C191    1.396   .     S
C189   H190    0.930   .     S
C189   C193    1.388   .     S
C191   H192    0.930   .     S
C191   C195    1.378   .     S
C193   H194    0.930   .     S
C193   C195    1.377   .     S
C195   C312    1.495   .     S
O196   In313   2.258   1_556 S
O196   C198    1.269   .     S
O197   In313   2.316   1_556 S
O197   C198    1.244   .     S
C198   C199    1.494   .     S
C199   C200    1.387   .     S
C199   C202    1.375   .     S
C200   H201    0.931   .     S
C200   C204    1.396   .     S
C202   H203    0.930   .     S
C202   C206    1.388   .     S
C204   H205    0.930   .     S
C204   C208    1.378   .     S
C206   H207    0.930   .     S
C206   C208    1.377   .     S
C208   C260    1.495   .     S
O209   In327   2.258   1_556 S
O209   C211    1.269   .     S
O210   In327   2.316   1_556 S
O210   C211    1.244   .     S
C211   C212    1.494   .     S
C212   C213    1.387   .     S
C212   C215    1.375   .     S
C213   H214    0.931   .     S
C213   C217    1.396   .     S
C215   H216    0.930   .     S
C215   C219    1.388   .     S
C217   H218    0.930   .     S
C217   C221    1.378   .     S
C219   H220    0.930   .     S
C219   C221    1.377   .     S
C221   C247    1.495   .     S
O222   In341   2.258   1_556 S
O222   C224    1.269   .     S
O223   In341   2.316   1_556 S
O223   C224    1.244   .     S
C224   C225    1.494   .     S
C225   C226    1.387   .     S
C225   C228    1.375   .     S
C226   H227    0.931   .     S
C226   C230    1.396   .     S
C228   H229    0.930   .     S
C228   C232    1.388   .     S
C230   H231    0.930   .     S
C230   C234    1.378   .     S
C232   H233    0.930   .     S
C232   C234    1.377   .     S
C234   C273    1.495   .     S
O235   In439   2.258   .     S
O235   C237    1.269   .     S
O236   In439   2.316   .     S
O236   C237    1.244   .     S
C237   C238    1.494   .     S
C238   C239    1.387   .     S
C238   C241    1.375   .     S
C239   H240    0.931   .     S
C239   C243    1.396   .     S
C241   H242    0.930   .     S
C241   C245    1.388   .     S
C243   H244    0.930   .     S
C243   C247    1.378   .     S
C245   H246    0.930   .     S
C245   C247    1.377   .     S
O248   In453   2.258   .     S
O248   C250    1.269   .     S
O249   In453   2.316   .     S
O249   C250    1.244   .     S
C250   C251    1.494   .     S
C251   C252    1.387   .     S
C251   C254    1.375   .     S
C252   H253    0.931   .     S
C252   C256    1.396   .     S
C254   H255    0.930   .     S
C254   C258    1.388   .     S
C256   H257    0.930   .     S
C256   C260    1.378   .     S
C258   H259    0.930   .     S
C258   C260    1.377   .     S
O261   In467   2.258   .     S
O261   C263    1.269   .     S
O262   In467   2.316   .     S
O262   C263    1.244   .     S
C263   C264    1.494   .     S
C264   C265    1.387   .     S
C264   C267    1.375   .     S
C265   H266    0.931   .     S
C265   C269    1.396   .     S
C267   H268    0.930   .     S
C267   C271    1.388   .     S
C269   H270    0.930   .     S
C269   C273    1.378   .     S
C271   H272    0.930   .     S
C271   C273    1.377   .     S
O274   In397   2.258   .     S
O274   C276    1.269   .     S
O275   In397   2.316   .     S
O275   C276    1.244   .     S
C276   C277    1.494   .     S
C277   C278    1.387   .     S
C277   C280    1.375   .     S
C278   H279    0.931   .     S
C278   C282    1.396   .     S
C280   H281    0.930   .     S
C280   C284    1.388   .     S
C282   H283    0.930   .     S
C282   C286    1.378   .     S
C284   H285    0.930   .     S
C284   C286    1.377   .     S
O287   In411   2.258   .     S
O287   C289    1.269   .     S
O288   In411   2.316   .     S
O288   C289    1.244   .     S
C289   C290    1.494   .     S
C290   C291    1.387   .     S
C290   C293    1.375   .     S
C291   H292    0.931   .     S
C291   C295    1.396   .     S
C293   H294    0.930   .     S
C293   C297    1.388   .     S
C295   H296    0.930   .     S
C295   C299    1.378   .     S
C297   H298    0.930   .     S
C297   C299    1.377   .     S
O300   In425   2.258   .     S
O300   C302    1.269   .     S
O301   In425   2.316   .     S
O301   C302    1.244   .     S
C302   C303    1.494   .     S
C303   C304    1.387   .     S
C303   C306    1.375   .     S
C304   H305    0.931   .     S
C304   C308    1.396   .     S
C306   H307    0.930   .     S
C306   C310    1.388   .     S
C308   H309    0.930   .     S
C308   C312    1.378   .     S
C310   H311    0.930   .     S
C310   C312    1.377   .     S
In313  O316    2.312   .     S
In313  O196    2.258   1_554 S
In313  O319    2.246   .     S
In313  O197    2.316   1_554 S
In313  O385    2.360   .     S
In313  O387    2.213   .     S
S314   C320    1.712   .     S
S314   C321    1.702   .     S
O315   C322    1.256   .     S
O315   In369   2.360   .     S
O316   C318    1.252   .     S
O317   C322    1.263   .     S
O317   In369   2.213   .     S
C318   O319    1.252   .     S
C318   C320    1.475   .     S
C320   C323    1.349   .     S
C321   C322    1.460   1_655 S
C321   C325    1.376   .     S
C322   C321    1.460   1_455 S
C323   H324    0.931   .     S
C323   C325    1.372   .     S
C325   H326    0.930   .     S
In327  O330    2.312   .     S
In327  O209    2.258   1_554 S
In327  O333    2.246   .     S
In327  O210    2.316   1_554 S
In327  O357    2.360   .     S
In327  O359    2.213   .     S
S328   C334    1.712   .     S
S328   C335    1.702   .     S
O329   C336    1.256   .     S
O329   In383   2.360   .     S
O330   C332    1.252   .     S
O331   C336    1.263   .     S
O331   In383   2.213   .     S
C332   O333    1.252   .     S
C332   C334    1.475   .     S
C334   C337    1.349   .     S
C335   C336    1.460   .     S
C335   C339    1.376   .     S
C337   H338    0.931   .     S
C337   C339    1.372   .     S
C339   H340    0.930   .     S
In341  O344    2.312   .     S
In341  O222    2.258   1_554 S
In341  O347    2.246   .     S
In341  O223    2.316   1_554 S
In341  O371    2.360   .     S
In341  O373    2.213   .     S
S342   C348    1.712   .     S
S342   C349    1.702   .     S
O343   C350    1.256   .     S
O343   In355   2.360   .     S
O344   C346    1.252   .     S
O345   C350    1.263   .     S
O345   In355   2.213   .     S
C346   O347    1.252   .     S
C346   C348    1.475   .     S
C348   C351    1.349   .     S
C349   C350    1.460   1_545 S
C349   C353    1.376   .     S
C350   C349    1.460   1_565 S
C351   H352    0.931   .     S
C351   C353    1.372   .     S
C353   H354    0.930   .     S
In355  O358    2.312   .     S
In355  O157    2.258   1_554 S
In355  O361    2.246   .     S
In355  O158    2.316   1_554 S
S356   C362    1.712   .     S
S356   C363    1.702   .     S
O357   C364    1.256   .     S
O358   C360    1.252   .     S
O359   C364    1.263   .     S
C360   O361    1.252   .     S
C360   C362    1.475   .     S
C362   C365    1.349   .     S
C363   C364    1.460   1_455 S
C363   C367    1.376   .     S
C364   C363    1.460   1_655 S
C365   H366    0.931   .     S
C365   C367    1.372   .     S
C367   H368    0.930   .     S
In369  O372    2.312   .     S
In369  O170    2.258   1_554 S
In369  O375    2.246   .     S
In369  O171    2.316   1_554 S
S370   C376    1.712   .     S
S370   C377    1.702   .     S
O371   C378    1.256   .     S
O372   C374    1.252   .     S
O373   C378    1.263   .     S
C374   O375    1.252   .     S
C374   C376    1.475   .     S
C376   C379    1.349   .     S
C377   C378    1.460   .     S
C377   C381    1.376   .     S
C379   H380    0.931   .     S
C379   C381    1.372   .     S
C381   H382    0.930   .     S
In383  O386    2.312   .     S
In383  O183    2.258   1_554 S
In383  O389    2.246   .     S
In383  O184    2.316   1_554 S
S384   C390    1.712   .     S
S384   C391    1.702   .     S
O385   C392    1.256   .     S
O386   C388    1.252   .     S
O387   C392    1.263   .     S
C388   O389    1.252   .     S
C388   C390    1.475   .     S
C390   C393    1.349   .     S
C391   C392    1.460   1_565 S
C391   C395    1.376   .     S
C392   C391    1.460   1_545 S
C393   H394    0.931   .     S
C393   C395    1.372   .     S
C395   H396    0.930   .     S
In397  O400    2.312   .     S
In397  O403    2.246   .     S
In397  O469    2.360   .     S
In397  O471    2.213   .     S
S398   C404    1.712   .     S
S398   C405    1.702   .     S
O399   C406    1.256   .     S
O399   In453   2.360   .     S
O400   C402    1.252   .     S
O401   C406    1.263   .     S
O401   In453   2.213   .     S
C402   O403    1.252   .     S
C402   C404    1.475   .     S
C404   C407    1.349   .     S
C405   C406    1.460   1_565 S
C405   C409    1.376   .     S
C406   C405    1.460   1_545 S
C407   H408    0.931   .     S
C407   C409    1.372   .     S
C409   H410    0.930   .     S
In411  O414    2.312   .     S
In411  O417    2.246   .     S
In411  O441    2.360   .     S
In411  O443    2.213   .     S
S412   C418    1.712   .     S
S412   C419    1.702   .     S
O413   C420    1.256   .     S
O413   In467   2.360   .     S
O414   C416    1.252   .     S
O415   C420    1.263   .     S
O415   In467   2.213   .     S
C416   O417    1.252   .     S
C416   C418    1.475   .     S
C418   C421    1.349   .     S
C419   C420    1.460   .     S
C419   C423    1.376   .     S
C421   H422    0.931   .     S
C421   C423    1.372   .     S
C423   H424    0.930   .     S
In425  O428    2.312   .     S
In425  O431    2.246   .     S
In425  O455    2.360   .     S
In425  O457    2.213   .     S
S426   C432    1.712   .     S
S426   C433    1.702   .     S
O427   C434    1.256   .     S
O427   In439   2.360   .     S
O428   C430    1.252   .     S
O429   C434    1.263   .     S
O429   In439   2.213   .     S
C430   O431    1.252   .     S
C430   C432    1.475   .     S
C432   C435    1.349   .     S
C433   C434    1.460   1_455 S
C433   C437    1.376   .     S
C434   C433    1.460   1_655 S
C435   H436    0.931   .     S
C435   C437    1.372   .     S
C437   H438    0.930   .     S
In439  O442    2.312   .     S
In439  O445    2.246   .     S
S440   C446    1.712   .     S
S440   C447    1.702   .     S
O441   C448    1.256   .     S
O442   C444    1.252   .     S
O443   C448    1.263   .     S
C444   O445    1.252   .     S
C444   C446    1.475   .     S
C446   C449    1.349   .     S
C447   C448    1.460   1_545 S
C447   C451    1.376   .     S
C448   C447    1.460   1_565 S
C449   H450    0.931   .     S
C449   C451    1.372   .     S
C451   H452    0.930   .     S
In453  O456    2.312   .     S
In453  O459    2.246   .     S
S454   C460    1.712   .     S
S454   C461    1.702   .     S
O455   C462    1.256   .     S
O456   C458    1.252   .     S
O457   C462    1.263   .     S
C458   O459    1.252   .     S
C458   C460    1.475   .     S
C460   C463    1.349   .     S
C461   C462    1.460   .     S
C461   C465    1.376   .     S
C463   H464    0.931   .     S
C463   C465    1.372   .     S
C465   H466    0.930   .     S
In467  O470    2.312   .     S
In467  O473    2.246   .     S
S468   C474    1.712   .     S
S468   C475    1.702   .     S
O469   C476    1.256   .     S
O470   C472    1.252   .     S
O471   C476    1.263   .     S
C472   O473    1.252   .     S
C472   C474    1.475   .     S
C474   C477    1.349   .     S
C475   C476    1.460   1_655 S
C475   C479    1.376   .     S
C476   C475    1.460   1_455 S
C477   H478    0.931   .     S
C477   C479    1.372   .     S
C479   H480    0.930   .     S
