data_AJUCOA_FSR
_audit_creation_date              2024-06-11
_audit_creation_method            'Materials Studio'
_symmetry_space_group_name_H-M    'P1'
_symmetry_Int_Tables_number       1
_symmetry_cell_setting            triclinic
loop_
_symmetry_equiv_pos_as_xyz
  x,y,z
_cell_length_a                    27.1274
_cell_length_b                    27.1274
_cell_length_c                    29.7880
_cell_angle_alpha                 90.0000
_cell_angle_beta                  90.0000
_cell_angle_gamma                 90.0000
loop_
_atom_site_label
_atom_site_type_symbol
_atom_site_fract_x
_atom_site_fract_y
_atom_site_fract_z
_atom_site_U_iso_or_equiv
_atom_site_adp_type
_atom_site_occupancy
C1     C     0.31360   0.53810   0.63060   0.00000  Uiso   1.00
C2     C     0.44580   0.52600   0.66670   0.00000  Uiso   1.00
H3     H     0.46270   0.51240   0.69090   0.00000  Uiso   1.00
C4     C     0.39460   0.52360   0.66680   0.00000  Uiso   1.00
H5     H     0.37850   0.50900   0.69100   0.00000  Uiso   1.00
C6     C     0.39440   0.56490   0.60080   0.00000  Uiso   1.00
H7     H     0.37790   0.58120   0.57780   0.00000  Uiso   1.00
C8     C     0.36690   0.54270   0.63120   0.00000  Uiso   1.00
C9     C     0.14980   0.55080   0.56170   0.00000  Uiso   1.00
C10    C     0.47270   0.54730   0.63300   0.00000  Uiso   1.00
C11    C     0.44640   0.56660   0.59960   0.00000  Uiso   1.00
H12    H     0.46240   0.58120   0.57540   0.00000  Uiso   1.00
O13    O     0.29098   0.55460   0.59620   0.00000  Uiso   1.00
O14    O     0.29090   0.52120   0.66220   0.00000  Uiso   1.00
O15    O     0.13859   0.53850   0.60190   0.00000  Uiso   1.00
O16    O     0.19604   0.55480   0.55360   0.00000  Uiso   1.00
C17    C     0.11160   0.55910   0.52850   0.00000  Uiso   1.00
C18    C     0.04040   0.57340   0.46470   0.00000  Uiso   1.00
C19    C     0.06260   0.55630   0.53940   0.00000  Uiso   1.00
H20    H     0.05330   0.54860   0.56870   0.00000  Uiso   1.00
C21    C     0.02740   0.56470   0.50760   0.00000  Uiso   1.00
C22    C     0.12590   0.56980   0.48430   0.00000  Uiso   1.00
H23    H     0.15920   0.57260   0.47730   0.00000  Uiso   1.00
C24    C     0.09140   0.57600   0.45190   0.00000  Uiso   1.00
H25    H     0.10050   0.58180   0.42220   0.00000  Uiso   1.00
C26    C     0.81360   0.03810   0.13060   0.00000  Uiso   1.00
C27    C     0.94580   0.02600   0.16670   0.00000  Uiso   1.00
H28    H     0.96270   0.01240   0.19090   0.00000  Uiso   1.00
C29    C     0.89460   0.02360   0.16680   0.00000  Uiso   1.00
H30    H     0.87850   0.00900   0.19100   0.00000  Uiso   1.00
C31    C     0.89440   0.06490   0.10080   0.00000  Uiso   1.00
H32    H     0.87790   0.08120   0.07780   0.00000  Uiso   1.00
C33    C     0.86690   0.04270   0.13120   0.00000  Uiso   1.00
C34    C     0.64980   0.05080   0.06170   0.00000  Uiso   1.00
C35    C     0.97270   0.04730   0.13300   0.00000  Uiso   1.00
C36    C     0.94640   0.06660   0.09960   0.00000  Uiso   1.00
H37    H     0.96240   0.08120   0.07540   0.00000  Uiso   1.00
O38    O     0.79098   0.05460   0.09620   0.00000  Uiso   1.00
O39    O     0.79090   0.02120   0.16220   0.00000  Uiso   1.00
O40    O     0.63859   0.03850   0.10190   0.00000  Uiso   1.00
O41    O     0.69604   0.05480   0.05360   0.00000  Uiso   1.00
C42    C     0.61160   0.05910   0.02850   0.00000  Uiso   1.00
C43    C     0.54040   0.07340  -0.03530   0.00000  Uiso   1.00
C44    C     0.56260   0.05630   0.03940   0.00000  Uiso   1.00
H45    H     0.55330   0.04860   0.06870   0.00000  Uiso   1.00
C46    C     0.52740   0.06470   0.00760   0.00000  Uiso   1.00
C47    C     0.62590   0.06980  -0.01570   0.00000  Uiso   1.00
H48    H     0.65920   0.07260  -0.02270   0.00000  Uiso   1.00
C49    C     0.59140   0.07600  -0.04810   0.00000  Uiso   1.00
H50    H     0.60050   0.08180  -0.07780   0.00000  Uiso   1.00
C51    C     0.18640   0.46190   0.13060   0.00000  Uiso   1.00
C52    C     0.05420   0.47400   0.16670   0.00000  Uiso   1.00
H53    H     0.03730   0.48760   0.19090   0.00000  Uiso   1.00
C54    C     0.10540   0.47640   0.16680   0.00000  Uiso   1.00
H55    H     0.12150   0.49100   0.19100   0.00000  Uiso   1.00
C56    C     0.10560   0.43510   0.10080   0.00000  Uiso   1.00
H57    H     0.12210   0.41880   0.07780   0.00000  Uiso   1.00
C58    C     0.13310   0.45730   0.13120   0.00000  Uiso   1.00
C59    C     0.35020   0.44920   0.06170   0.00000  Uiso   1.00
C60    C     0.02730   0.45270   0.13300   0.00000  Uiso   1.00
C61    C     0.05360   0.43340   0.09960   0.00000  Uiso   1.00
H62    H     0.03760   0.41880   0.07540   0.00000  Uiso   1.00
O63    O     0.20902   0.44540   0.09620   0.00000  Uiso   1.00
O64    O     0.20910   0.47880   0.16220   0.00000  Uiso   1.00
O65    O     0.36141   0.46150   0.10190   0.00000  Uiso   1.00
O66    O     0.30396   0.44520   0.05360   0.00000  Uiso   1.00
C67    C     0.38840   0.44090   0.02850   0.00000  Uiso   1.00
C68    C     0.45960   0.42660  -0.03530   0.00000  Uiso   1.00
C69    C     0.43740   0.44370   0.03940   0.00000  Uiso   1.00
H70    H     0.44670   0.45140   0.06870   0.00000  Uiso   1.00
C71    C     0.47260   0.43530   0.00760   0.00000  Uiso   1.00
C72    C     0.37410   0.43020  -0.01570   0.00000  Uiso   1.00
H73    H     0.34080   0.42740  -0.02270   0.00000  Uiso   1.00
C74    C     0.40860   0.42400  -0.04810   0.00000  Uiso   1.00
H75    H     0.39950   0.41820  -0.07780   0.00000  Uiso   1.00
C76    C     0.68640   0.96190   0.63060   0.00000  Uiso   1.00
C77    C     0.55420   0.97400   0.66670   0.00000  Uiso   1.00
H78    H     0.53730   0.98760   0.69090   0.00000  Uiso   1.00
C79    C     0.60540   0.97640   0.66680   0.00000  Uiso   1.00
H80    H     0.62150   0.99100   0.69100   0.00000  Uiso   1.00
C81    C     0.60560   0.93510   0.60080   0.00000  Uiso   1.00
H82    H     0.62210   0.91880   0.57780   0.00000  Uiso   1.00
C83    C     0.63310   0.95730   0.63120   0.00000  Uiso   1.00
C84    C     0.85020   0.94920   0.56170   0.00000  Uiso   1.00
C85    C     0.52730   0.95270   0.63300   0.00000  Uiso   1.00
C86    C     0.55360   0.93340   0.59960   0.00000  Uiso   1.00
H87    H     0.53760   0.91880   0.57540   0.00000  Uiso   1.00
O88    O     0.70902   0.94540   0.59620   0.00000  Uiso   1.00
O89    O     0.70910   0.97880   0.66220   0.00000  Uiso   1.00
O90    O     0.86141   0.96150   0.60190   0.00000  Uiso   1.00
O91    O     0.80396   0.94520   0.55360   0.00000  Uiso   1.00
C92    C     0.88840   0.94090   0.52850   0.00000  Uiso   1.00
C93    C     0.95960   0.92660   0.46470   0.00000  Uiso   1.00
C94    C     0.93740   0.94370   0.53940   0.00000  Uiso   1.00
H95    H     0.94670   0.95140   0.56870   0.00000  Uiso   1.00
C96    C     0.97260   0.93530   0.50760   0.00000  Uiso   1.00
C97    C     0.87410   0.93020   0.48430   0.00000  Uiso   1.00
H98    H     0.84080   0.92740   0.47730   0.00000  Uiso   1.00
C99    C     0.90860   0.92400   0.45190   0.00000  Uiso   1.00
H100   H     0.89950   0.91820   0.42220   0.00000  Uiso   1.00
C101   C     0.71190   0.06360   0.88060   0.00000  Uiso   1.00
C102   C     0.72400   0.19580   0.91670   0.00000  Uiso   1.00
H103   H     0.73760   0.21270   0.94090   0.00000  Uiso   1.00
C104   C     0.72640   0.14460   0.91680   0.00000  Uiso   1.00
H105   H     0.74100   0.12850   0.94100   0.00000  Uiso   1.00
C106   C     0.68510   0.14440   0.85080   0.00000  Uiso   1.00
H107   H     0.66880   0.12790   0.82780   0.00000  Uiso   1.00
C108   C     0.70730   0.11690   0.88120   0.00000  Uiso   1.00
C109   C     0.69920   0.89980   0.81170   0.00000  Uiso   1.00
C110   C     0.70270   0.22270   0.88300   0.00000  Uiso   1.00
C111   C     0.68340   0.19640   0.84960   0.00000  Uiso   1.00
H112   H     0.66880   0.21240   0.82540   0.00000  Uiso   1.00
O113   O     0.69540   0.04098   0.84620   0.00000  Uiso   1.00
O114   O     0.72880   0.04090   0.91220   0.00000  Uiso   1.00
O115   O     0.71150   0.88859   0.85190   0.00000  Uiso   1.00
O116   O     0.69520   0.94604   0.80360   0.00000  Uiso   1.00
C117   C     0.69090   0.86160   0.77850   0.00000  Uiso   1.00
C118   C     0.67660   0.79040   0.71470   0.00000  Uiso   1.00
C119   C     0.69370   0.81260   0.78940   0.00000  Uiso   1.00
H120   H     0.70140   0.80330   0.81870   0.00000  Uiso   1.00
C121   C     0.68530   0.77740   0.75760   0.00000  Uiso   1.00
C122   C     0.68020   0.87590   0.73430   0.00000  Uiso   1.00
H123   H     0.67740   0.90920   0.72730   0.00000  Uiso   1.00
C124   C     0.67400   0.84140   0.70190   0.00000  Uiso   1.00
H125   H     0.66820   0.85050   0.67220   0.00000  Uiso   1.00
C126   C     0.21190   0.56360   0.38060   0.00000  Uiso   1.00
C127   C     0.22400   0.69580   0.41670   0.00000  Uiso   1.00
H128   H     0.23760   0.71270   0.44090   0.00000  Uiso   1.00
C129   C     0.22640   0.64460   0.41680   0.00000  Uiso   1.00
H130   H     0.24100   0.62850   0.44100   0.00000  Uiso   1.00
C131   C     0.18510   0.64440   0.35080   0.00000  Uiso   1.00
H132   H     0.16880   0.62790   0.32780   0.00000  Uiso   1.00
C133   C     0.20730   0.61690   0.38120   0.00000  Uiso   1.00
C134   C     0.19920   0.39980   0.31170   0.00000  Uiso   1.00
C135   C     0.20270   0.72270   0.38300   0.00000  Uiso   1.00
C136   C     0.18340   0.69640   0.34960   0.00000  Uiso   1.00
H137   H     0.16880   0.71240   0.32540   0.00000  Uiso   1.00
O138   O     0.19540   0.54098   0.34620   0.00000  Uiso   1.00
O139   O     0.22880   0.54090   0.41220   0.00000  Uiso   1.00
O140   O     0.21150   0.38859   0.35190   0.00000  Uiso   1.00
O141   O     0.19520   0.44604   0.30360   0.00000  Uiso   1.00
C142   C     0.19090   0.36160   0.27850   0.00000  Uiso   1.00
C143   C     0.17660   0.29040   0.21470   0.00000  Uiso   1.00
C144   C     0.19370   0.31260   0.28940   0.00000  Uiso   1.00
H145   H     0.20140   0.30330   0.31870   0.00000  Uiso   1.00
C146   C     0.18530   0.27740   0.25760   0.00000  Uiso   1.00
C147   C     0.18020   0.37590   0.23430   0.00000  Uiso   1.00
H148   H     0.17740   0.40920   0.22730   0.00000  Uiso   1.00
C149   C     0.17400   0.34140   0.20190   0.00000  Uiso   1.00
H150   H     0.16820   0.35050   0.17220   0.00000  Uiso   1.00
C151   C     0.78810   0.93640   0.38060   0.00000  Uiso   1.00
C152   C     0.77600   0.80420   0.41670   0.00000  Uiso   1.00
H153   H     0.76240   0.78730   0.44090   0.00000  Uiso   1.00
C154   C     0.77360   0.85540   0.41680   0.00000  Uiso   1.00
H155   H     0.75900   0.87150   0.44100   0.00000  Uiso   1.00
C156   C     0.81490   0.85560   0.35080   0.00000  Uiso   1.00
H157   H     0.83120   0.87210   0.32780   0.00000  Uiso   1.00
C158   C     0.79270   0.88310   0.38120   0.00000  Uiso   1.00
C159   C     0.80080   0.10020   0.31170   0.00000  Uiso   1.00
C160   C     0.79730   0.77730   0.38300   0.00000  Uiso   1.00
C161   C     0.81660   0.80360   0.34960   0.00000  Uiso   1.00
H162   H     0.83120   0.78760   0.32540   0.00000  Uiso   1.00
O163   O     0.80460   0.95902   0.34620   0.00000  Uiso   1.00
O164   O     0.77120   0.95910   0.41220   0.00000  Uiso   1.00
O165   O     0.78850   0.11141   0.35190   0.00000  Uiso   1.00
O166   O     0.80480   0.05396   0.30360   0.00000  Uiso   1.00
C167   C     0.80910   0.13840   0.27850   0.00000  Uiso   1.00
C168   C     0.82340   0.20960   0.21470   0.00000  Uiso   1.00
C169   C     0.80630   0.18740   0.28940   0.00000  Uiso   1.00
H170   H     0.79860   0.19670   0.31870   0.00000  Uiso   1.00
C171   C     0.81470   0.22260   0.25760   0.00000  Uiso   1.00
C172   C     0.81980   0.12410   0.23430   0.00000  Uiso   1.00
H173   H     0.82260   0.09080   0.22730   0.00000  Uiso   1.00
C174   C     0.82600   0.15860   0.20190   0.00000  Uiso   1.00
H175   H     0.83180   0.14950   0.17220   0.00000  Uiso   1.00
C176   C     0.28810   0.43640   0.88060   0.00000  Uiso   1.00
C177   C     0.27600   0.30420   0.91670   0.00000  Uiso   1.00
H178   H     0.26240   0.28730   0.94090   0.00000  Uiso   1.00
C179   C     0.27360   0.35540   0.91680   0.00000  Uiso   1.00
H180   H     0.25900   0.37150   0.94100   0.00000  Uiso   1.00
C181   C     0.31490   0.35560   0.85080   0.00000  Uiso   1.00
H182   H     0.33120   0.37210   0.82780   0.00000  Uiso   1.00
C183   C     0.29270   0.38310   0.88120   0.00000  Uiso   1.00
C184   C     0.30080   0.60020   0.81170   0.00000  Uiso   1.00
C185   C     0.29730   0.27730   0.88300   0.00000  Uiso   1.00
C186   C     0.31660   0.30360   0.84960   0.00000  Uiso   1.00
H187   H     0.33120   0.28760   0.82540   0.00000  Uiso   1.00
O188   O     0.30460   0.45902   0.84620   0.00000  Uiso   1.00
O189   O     0.27120   0.45910   0.91220   0.00000  Uiso   1.00
O190   O     0.28850   0.61141   0.85190   0.00000  Uiso   1.00
O191   O     0.30480   0.55396   0.80360   0.00000  Uiso   1.00
C192   C     0.30910   0.63840   0.77850   0.00000  Uiso   1.00
C193   C     0.32340   0.70960   0.71470   0.00000  Uiso   1.00
C194   C     0.30630   0.68740   0.78940   0.00000  Uiso   1.00
H195   H     0.29860   0.69670   0.81870   0.00000  Uiso   1.00
C196   C     0.31470   0.72260   0.75760   0.00000  Uiso   1.00
C197   C     0.31980   0.62410   0.73430   0.00000  Uiso   1.00
H198   H     0.32260   0.59080   0.72730   0.00000  Uiso   1.00
C199   C     0.32600   0.65860   0.70190   0.00000  Uiso   1.00
H200   H     0.33180   0.64950   0.67220   0.00000  Uiso   1.00
C201   C     0.18640   0.53810   0.86940   0.00000  Uiso   1.00
C202   C     0.05420   0.52600   0.83330   0.00000  Uiso   1.00
H203   H     0.03730   0.51240   0.80910   0.00000  Uiso   1.00
C204   C     0.10540   0.52360   0.83320   0.00000  Uiso   1.00
H205   H     0.12150   0.50900   0.80900   0.00000  Uiso   1.00
C206   C     0.10560   0.56490   0.89920   0.00000  Uiso   1.00
H207   H     0.12210   0.58120   0.92220   0.00000  Uiso   1.00
C208   C     0.13310   0.54270   0.86880   0.00000  Uiso   1.00
C209   C     0.35020   0.55080   0.93830   0.00000  Uiso   1.00
C210   C     0.02730   0.54730   0.86700   0.00000  Uiso   1.00
C211   C     0.05360   0.56660   0.90040   0.00000  Uiso   1.00
H212   H     0.03760   0.58120   0.92460   0.00000  Uiso   1.00
O213   O     0.20902   0.55460   0.90380   0.00000  Uiso   1.00
O214   O     0.20910   0.52120   0.83780   0.00000  Uiso   1.00
O215   O     0.36141   0.53850   0.89810   0.00000  Uiso   1.00
O216   O     0.30396   0.55480   0.94640   0.00000  Uiso   1.00
C217   C     0.38840   0.55910   0.97150   0.00000  Uiso   1.00
C218   C     0.45960   0.57340   1.03530   0.00000  Uiso   1.00
C219   C     0.43740   0.55630   0.96060   0.00000  Uiso   1.00
H220   H     0.44670   0.54860   0.93130   0.00000  Uiso   1.00
C221   C     0.47260   0.56470   0.99240   0.00000  Uiso   1.00
C222   C     0.37410   0.56980   1.01570   0.00000  Uiso   1.00
H223   H     0.34080   0.57260   1.02270   0.00000  Uiso   1.00
C224   C     0.40860   0.57600   1.04810   0.00000  Uiso   1.00
H225   H     0.39950   0.58180   1.07780   0.00000  Uiso   1.00
C226   C     0.68640   0.03810   0.36940   0.00000  Uiso   1.00
C227   C     0.55420   0.02600   0.33330   0.00000  Uiso   1.00
H228   H     0.53730   0.01240   0.30910   0.00000  Uiso   1.00
C229   C     0.60540   0.02360   0.33320   0.00000  Uiso   1.00
H230   H     0.62150   0.00900   0.30900   0.00000  Uiso   1.00
C231   C     0.60560   0.06490   0.39920   0.00000  Uiso   1.00
H232   H     0.62210   0.08120   0.42220   0.00000  Uiso   1.00
C233   C     0.63310   0.04270   0.36880   0.00000  Uiso   1.00
C234   C     0.85020   0.05080   0.43830   0.00000  Uiso   1.00
C235   C     0.52730   0.04730   0.36700   0.00000  Uiso   1.00
C236   C     0.55360   0.06660   0.40040   0.00000  Uiso   1.00
H237   H     0.53760   0.08120   0.42460   0.00000  Uiso   1.00
O238   O     0.70902   0.05460   0.40380   0.00000  Uiso   1.00
O239   O     0.70910   0.02120   0.33780   0.00000  Uiso   1.00
O240   O     0.86141   0.03850   0.39810   0.00000  Uiso   1.00
O241   O     0.80396   0.05480   0.44640   0.00000  Uiso   1.00
C242   C     0.88840   0.05910   0.47150   0.00000  Uiso   1.00
C243   C     0.95960   0.07340   0.53530   0.00000  Uiso   1.00
C244   C     0.93740   0.05630   0.46060   0.00000  Uiso   1.00
H245   H     0.94670   0.04860   0.43130   0.00000  Uiso   1.00
C246   C     0.97260   0.06470   0.49240   0.00000  Uiso   1.00
C247   C     0.87410   0.06980   0.51570   0.00000  Uiso   1.00
H248   H     0.84080   0.07260   0.52270   0.00000  Uiso   1.00
C249   C     0.90860   0.07600   0.54810   0.00000  Uiso   1.00
H250   H     0.89950   0.08180   0.57780   0.00000  Uiso   1.00
C251   C     0.31360   0.46190   0.36940   0.00000  Uiso   1.00
C252   C     0.44580   0.47400   0.33330   0.00000  Uiso   1.00
H253   H     0.46270   0.48760   0.30910   0.00000  Uiso   1.00
C254   C     0.39460   0.47640   0.33320   0.00000  Uiso   1.00
H255   H     0.37850   0.49100   0.30900   0.00000  Uiso   1.00
C256   C     0.39440   0.43510   0.39920   0.00000  Uiso   1.00
H257   H     0.37790   0.41880   0.42220   0.00000  Uiso   1.00
C258   C     0.36690   0.45730   0.36880   0.00000  Uiso   1.00
C259   C     0.14980   0.44920   0.43830   0.00000  Uiso   1.00
C260   C     0.47270   0.45270   0.36700   0.00000  Uiso   1.00
C261   C     0.44640   0.43340   0.40040   0.00000  Uiso   1.00
H262   H     0.46240   0.41880   0.42460   0.00000  Uiso   1.00
O263   O     0.29098   0.44540   0.40380   0.00000  Uiso   1.00
O264   O     0.29090   0.47880   0.33780   0.00000  Uiso   1.00
O265   O     0.13859   0.46150   0.39810   0.00000  Uiso   1.00
O266   O     0.19604   0.44520   0.44640   0.00000  Uiso   1.00
C267   C     0.11160   0.44090   0.47150   0.00000  Uiso   1.00
C268   C     0.04040   0.42660   0.53530   0.00000  Uiso   1.00
C269   C     0.06260   0.44370   0.46060   0.00000  Uiso   1.00
H270   H     0.05330   0.45140   0.43130   0.00000  Uiso   1.00
C271   C     0.02740   0.43530   0.49240   0.00000  Uiso   1.00
C272   C     0.12590   0.43020   0.51570   0.00000  Uiso   1.00
H273   H     0.15920   0.42740   0.52270   0.00000  Uiso   1.00
C274   C     0.09140   0.42400   0.54810   0.00000  Uiso   1.00
H275   H     0.10050   0.41820   0.57780   0.00000  Uiso   1.00
C276   C     0.81360   0.96190   0.86940   0.00000  Uiso   1.00
C277   C     0.94580   0.97400   0.83330   0.00000  Uiso   1.00
H278   H     0.96270   0.98760   0.80910   0.00000  Uiso   1.00
C279   C     0.89460   0.97640   0.83320   0.00000  Uiso   1.00
H280   H     0.87850   0.99100   0.80900   0.00000  Uiso   1.00
C281   C     0.89440   0.93510   0.89920   0.00000  Uiso   1.00
H282   H     0.87790   0.91880   0.92220   0.00000  Uiso   1.00
C283   C     0.86690   0.95730   0.86880   0.00000  Uiso   1.00
C284   C     0.64980   0.94920   0.93830   0.00000  Uiso   1.00
C285   C     0.97270   0.95270   0.86700   0.00000  Uiso   1.00
C286   C     0.94640   0.93340   0.90040   0.00000  Uiso   1.00
H287   H     0.96240   0.91880   0.92460   0.00000  Uiso   1.00
O288   O     0.79098   0.94540   0.90380   0.00000  Uiso   1.00
O289   O     0.79090   0.97880   0.83780   0.00000  Uiso   1.00
O290   O     0.63859   0.96150   0.89810   0.00000  Uiso   1.00
O291   O     0.69604   0.94520   0.94640   0.00000  Uiso   1.00
C292   C     0.61160   0.94090   0.97150   0.00000  Uiso   1.00
C293   C     0.54040   0.92660   1.03530   0.00000  Uiso   1.00
C294   C     0.56260   0.94370   0.96060   0.00000  Uiso   1.00
H295   H     0.55330   0.95140   0.93130   0.00000  Uiso   1.00
C296   C     0.52740   0.93530   0.99240   0.00000  Uiso   1.00
C297   C     0.62590   0.93020   1.01570   0.00000  Uiso   1.00
H298   H     0.65920   0.92740   1.02270   0.00000  Uiso   1.00
C299   C     0.59140   0.92400   1.04810   0.00000  Uiso   1.00
H300   H     0.60050   0.91820   1.07780   0.00000  Uiso   1.00
C301   C     0.78810   0.06360   0.61940   0.00000  Uiso   1.00
C302   C     0.77600   0.19580   0.58330   0.00000  Uiso   1.00
H303   H     0.76240   0.21270   0.55910   0.00000  Uiso   1.00
C304   C     0.77360   0.14460   0.58320   0.00000  Uiso   1.00
H305   H     0.75900   0.12850   0.55900   0.00000  Uiso   1.00
C306   C     0.81490   0.14440   0.64920   0.00000  Uiso   1.00
H307   H     0.83120   0.12790   0.67220   0.00000  Uiso   1.00
C308   C     0.79270   0.11690   0.61880   0.00000  Uiso   1.00
C309   C     0.80080   0.89980   0.68830   0.00000  Uiso   1.00
C310   C     0.79730   0.22270   0.61700   0.00000  Uiso   1.00
C311   C     0.81660   0.19640   0.65040   0.00000  Uiso   1.00
H312   H     0.83120   0.21240   0.67460   0.00000  Uiso   1.00
O313   O     0.80460   0.04098   0.65380   0.00000  Uiso   1.00
O314   O     0.77120   0.04090   0.58780   0.00000  Uiso   1.00
O315   O     0.78850   0.88859   0.64810   0.00000  Uiso   1.00
O316   O     0.80480   0.94604   0.69640   0.00000  Uiso   1.00
C317   C     0.80910   0.86160   0.72150   0.00000  Uiso   1.00
C318   C     0.82340   0.79040   0.78530   0.00000  Uiso   1.00
C319   C     0.80630   0.81260   0.71060   0.00000  Uiso   1.00
H320   H     0.79860   0.80330   0.68130   0.00000  Uiso   1.00
C321   C     0.81470   0.77740   0.74240   0.00000  Uiso   1.00
C322   C     0.81980   0.87590   0.76570   0.00000  Uiso   1.00
H323   H     0.82260   0.90920   0.77270   0.00000  Uiso   1.00
C324   C     0.82600   0.84140   0.79810   0.00000  Uiso   1.00
H325   H     0.83180   0.85050   0.82780   0.00000  Uiso   1.00
C326   C     0.28810   0.56360   0.11940   0.00000  Uiso   1.00
C327   C     0.27600   0.69580   0.08330   0.00000  Uiso   1.00
H328   H     0.26240   0.71270   0.05910   0.00000  Uiso   1.00
C329   C     0.27360   0.64460   0.08320   0.00000  Uiso   1.00
H330   H     0.25900   0.62850   0.05900   0.00000  Uiso   1.00
C331   C     0.31490   0.64440   0.14920   0.00000  Uiso   1.00
H332   H     0.33120   0.62790   0.17220   0.00000  Uiso   1.00
C333   C     0.29270   0.61690   0.11880   0.00000  Uiso   1.00
C334   C     0.30080   0.39980   0.18830   0.00000  Uiso   1.00
C335   C     0.29730   0.72270   0.11700   0.00000  Uiso   1.00
C336   C     0.31660   0.69640   0.15040   0.00000  Uiso   1.00
H337   H     0.33120   0.71240   0.17460   0.00000  Uiso   1.00
O338   O     0.30460   0.54098   0.15380   0.00000  Uiso   1.00
O339   O     0.27120   0.54090   0.08780   0.00000  Uiso   1.00
O340   O     0.28850   0.38859   0.14810   0.00000  Uiso   1.00
O341   O     0.30480   0.44604   0.19640   0.00000  Uiso   1.00
C342   C     0.30910   0.36160   0.22150   0.00000  Uiso   1.00
C343   C     0.32340   0.29040   0.28530   0.00000  Uiso   1.00
C344   C     0.30630   0.31260   0.21060   0.00000  Uiso   1.00
H345   H     0.29860   0.30330   0.18130   0.00000  Uiso   1.00
C346   C     0.31470   0.27740   0.24240   0.00000  Uiso   1.00
C347   C     0.31980   0.37590   0.26570   0.00000  Uiso   1.00
H348   H     0.32260   0.40920   0.27270   0.00000  Uiso   1.00
C349   C     0.32600   0.34140   0.29810   0.00000  Uiso   1.00
H350   H     0.33180   0.35050   0.32780   0.00000  Uiso   1.00
C351   C     0.71190   0.93640   0.11940   0.00000  Uiso   1.00
C352   C     0.72400   0.80420   0.08330   0.00000  Uiso   1.00
H353   H     0.73760   0.78730   0.05910   0.00000  Uiso   1.00
C354   C     0.72640   0.85540   0.08320   0.00000  Uiso   1.00
H355   H     0.74100   0.87150   0.05900   0.00000  Uiso   1.00
C356   C     0.68510   0.85560   0.14920   0.00000  Uiso   1.00
H357   H     0.66880   0.87210   0.17220   0.00000  Uiso   1.00
C358   C     0.70730   0.88310   0.11880   0.00000  Uiso   1.00
C359   C     0.69920   0.10020   0.18830   0.00000  Uiso   1.00
C360   C     0.70270   0.77730   0.11700   0.00000  Uiso   1.00
C361   C     0.68340   0.80360   0.15040   0.00000  Uiso   1.00
H362   H     0.66880   0.78760   0.17460   0.00000  Uiso   1.00
O363   O     0.69540   0.95902   0.15380   0.00000  Uiso   1.00
O364   O     0.72880   0.95910   0.08780   0.00000  Uiso   1.00
O365   O     0.71150   0.11141   0.14810   0.00000  Uiso   1.00
O366   O     0.69520   0.05396   0.19640   0.00000  Uiso   1.00
C367   C     0.69090   0.13840   0.22150   0.00000  Uiso   1.00
C368   C     0.67660   0.20960   0.28530   0.00000  Uiso   1.00
C369   C     0.69370   0.18740   0.21060   0.00000  Uiso   1.00
H370   H     0.70140   0.19670   0.18130   0.00000  Uiso   1.00
C371   C     0.68530   0.22260   0.24240   0.00000  Uiso   1.00
C372   C     0.68020   0.12410   0.26570   0.00000  Uiso   1.00
H373   H     0.67740   0.09080   0.27270   0.00000  Uiso   1.00
C374   C     0.67400   0.15860   0.29810   0.00000  Uiso   1.00
H375   H     0.66820   0.14950   0.32780   0.00000  Uiso   1.00
C376   C     0.21190   0.43640   0.61940   0.00000  Uiso   1.00
C377   C     0.22400   0.30420   0.58330   0.00000  Uiso   1.00
H378   H     0.23760   0.28730   0.55910   0.00000  Uiso   1.00
C379   C     0.22640   0.35540   0.58320   0.00000  Uiso   1.00
H380   H     0.24100   0.37150   0.55900   0.00000  Uiso   1.00
C381   C     0.18510   0.35560   0.64920   0.00000  Uiso   1.00
H382   H     0.16880   0.37210   0.67220   0.00000  Uiso   1.00
C383   C     0.20730   0.38310   0.61880   0.00000  Uiso   1.00
C384   C     0.19920   0.60020   0.68830   0.00000  Uiso   1.00
C385   C     0.20270   0.27730   0.61700   0.00000  Uiso   1.00
C386   C     0.18340   0.30360   0.65040   0.00000  Uiso   1.00
H387   H     0.16880   0.28760   0.67460   0.00000  Uiso   1.00
O388   O     0.19540   0.45902   0.65380   0.00000  Uiso   1.00
O389   O     0.22880   0.45910   0.58780   0.00000  Uiso   1.00
O390   O     0.21150   0.61141   0.64810   0.00000  Uiso   1.00
O391   O     0.19520   0.55396   0.69640   0.00000  Uiso   1.00
C392   C     0.19090   0.63840   0.72150   0.00000  Uiso   1.00
C393   C     0.17660   0.70960   0.78530   0.00000  Uiso   1.00
C394   C     0.19370   0.68740   0.71060   0.00000  Uiso   1.00
H395   H     0.20140   0.69670   0.68130   0.00000  Uiso   1.00
C396   C     0.18530   0.72260   0.74240   0.00000  Uiso   1.00
C397   C     0.18020   0.62410   0.76570   0.00000  Uiso   1.00
H398   H     0.17740   0.59080   0.77270   0.00000  Uiso   1.00
C399   C     0.17400   0.65860   0.79810   0.00000  Uiso   1.00
H400   H     0.16820   0.64950   0.82780   0.00000  Uiso   1.00
C401   C     0.68640   0.46190   0.36940   0.00000  Uiso   1.00
C402   C     0.55420   0.47400   0.33330   0.00000  Uiso   1.00
H403   H     0.53730   0.48760   0.30910   0.00000  Uiso   1.00
C404   C     0.60540   0.47640   0.33320   0.00000  Uiso   1.00
H405   H     0.62150   0.49100   0.30900   0.00000  Uiso   1.00
C406   C     0.60560   0.43510   0.39920   0.00000  Uiso   1.00
H407   H     0.62210   0.41880   0.42220   0.00000  Uiso   1.00
C408   C     0.63310   0.45730   0.36880   0.00000  Uiso   1.00
C409   C     0.85020   0.44920   0.43830   0.00000  Uiso   1.00
C410   C     0.52730   0.45270   0.36700   0.00000  Uiso   1.00
C411   C     0.55360   0.43340   0.40040   0.00000  Uiso   1.00
H412   H     0.53760   0.41880   0.42460   0.00000  Uiso   1.00
O413   O     0.70902   0.44540   0.40380   0.00000  Uiso   1.00
O414   O     0.70910   0.47880   0.33780   0.00000  Uiso   1.00
O415   O     0.86141   0.46150   0.39810   0.00000  Uiso   1.00
O416   O     0.80396   0.44520   0.44640   0.00000  Uiso   1.00
C417   C     0.88840   0.44090   0.47150   0.00000  Uiso   1.00
C418   C     0.95960   0.42660   0.53530   0.00000  Uiso   1.00
C419   C     0.93740   0.44370   0.46060   0.00000  Uiso   1.00
H420   H     0.94670   0.45140   0.43130   0.00000  Uiso   1.00
C421   C     0.97260   0.43530   0.49240   0.00000  Uiso   1.00
C422   C     0.87410   0.43020   0.51570   0.00000  Uiso   1.00
H423   H     0.84080   0.42740   0.52270   0.00000  Uiso   1.00
C424   C     0.90860   0.42400   0.54810   0.00000  Uiso   1.00
H425   H     0.89950   0.41820   0.57780   0.00000  Uiso   1.00
C426   C     0.18640   0.96190   0.86940   0.00000  Uiso   1.00
C427   C     0.05420   0.97400   0.83330   0.00000  Uiso   1.00
H428   H     0.03730   0.98760   0.80910   0.00000  Uiso   1.00
C429   C     0.10540   0.97640   0.83320   0.00000  Uiso   1.00
H430   H     0.12150   0.99100   0.80900   0.00000  Uiso   1.00
C431   C     0.10560   0.93510   0.89920   0.00000  Uiso   1.00
H432   H     0.12210   0.91880   0.92220   0.00000  Uiso   1.00
C433   C     0.13310   0.95730   0.86880   0.00000  Uiso   1.00
C434   C     0.35020   0.94920   0.93830   0.00000  Uiso   1.00
C435   C     0.02730   0.95270   0.86700   0.00000  Uiso   1.00
C436   C     0.05360   0.93340   0.90040   0.00000  Uiso   1.00
H437   H     0.03760   0.91880   0.92460   0.00000  Uiso   1.00
O438   O     0.20902   0.94540   0.90380   0.00000  Uiso   1.00
O439   O     0.20910   0.97880   0.83780   0.00000  Uiso   1.00
O440   O     0.36141   0.96150   0.89810   0.00000  Uiso   1.00
O441   O     0.30396   0.94520   0.94640   0.00000  Uiso   1.00
C442   C     0.38840   0.94090   0.97150   0.00000  Uiso   1.00
C443   C     0.45960   0.92660   1.03530   0.00000  Uiso   1.00
C444   C     0.43740   0.94370   0.96060   0.00000  Uiso   1.00
H445   H     0.44670   0.95140   0.93130   0.00000  Uiso   1.00
C446   C     0.47260   0.93530   0.99240   0.00000  Uiso   1.00
C447   C     0.37410   0.93020   1.01570   0.00000  Uiso   1.00
H448   H     0.34080   0.92740   1.02270   0.00000  Uiso   1.00
C449   C     0.40860   0.92400   1.04810   0.00000  Uiso   1.00
H450   H     0.39950   0.91820   1.07780   0.00000  Uiso   1.00
C451   C     0.81360   0.53810   0.86940   0.00000  Uiso   1.00
C452   C     0.94580   0.52600   0.83330   0.00000  Uiso   1.00
H453   H     0.96270   0.51240   0.80910   0.00000  Uiso   1.00
C454   C     0.89460   0.52360   0.83320   0.00000  Uiso   1.00
H455   H     0.87850   0.50900   0.80900   0.00000  Uiso   1.00
C456   C     0.89440   0.56490   0.89920   0.00000  Uiso   1.00
H457   H     0.87790   0.58120   0.92220   0.00000  Uiso   1.00
C458   C     0.86690   0.54270   0.86880   0.00000  Uiso   1.00
C459   C     0.64980   0.55080   0.93830   0.00000  Uiso   1.00
C460   C     0.97270   0.54730   0.86700   0.00000  Uiso   1.00
C461   C     0.94640   0.56660   0.90040   0.00000  Uiso   1.00
H462   H     0.96240   0.58120   0.92460   0.00000  Uiso   1.00
O463   O     0.79098   0.55460   0.90380   0.00000  Uiso   1.00
O464   O     0.79090   0.52120   0.83780   0.00000  Uiso   1.00
O465   O     0.63859   0.53850   0.89810   0.00000  Uiso   1.00
O466   O     0.69604   0.55480   0.94640   0.00000  Uiso   1.00
C467   C     0.61160   0.55910   0.97150   0.00000  Uiso   1.00
C468   C     0.54040   0.57340   1.03530   0.00000  Uiso   1.00
C469   C     0.56260   0.55630   0.96060   0.00000  Uiso   1.00
H470   H     0.55330   0.54860   0.93130   0.00000  Uiso   1.00
C471   C     0.52740   0.56470   0.99240   0.00000  Uiso   1.00
C472   C     0.62590   0.56980   1.01570   0.00000  Uiso   1.00
H473   H     0.65920   0.57260   1.02270   0.00000  Uiso   1.00
C474   C     0.59140   0.57600   1.04810   0.00000  Uiso   1.00
H475   H     0.60050   0.58180   1.07780   0.00000  Uiso   1.00
C476   C     0.31360   0.03810   0.36940   0.00000  Uiso   1.00
C477   C     0.44580   0.02600   0.33330   0.00000  Uiso   1.00
H478   H     0.46270   0.01240   0.30910   0.00000  Uiso   1.00
C479   C     0.39460   0.02360   0.33320   0.00000  Uiso   1.00
H480   H     0.37850   0.00900   0.30900   0.00000  Uiso   1.00
C481   C     0.39440   0.06490   0.39920   0.00000  Uiso   1.00
H482   H     0.37790   0.08120   0.42220   0.00000  Uiso   1.00
C483   C     0.36690   0.04270   0.36880   0.00000  Uiso   1.00
C484   C     0.14980   0.05080   0.43830   0.00000  Uiso   1.00
C485   C     0.47270   0.04730   0.36700   0.00000  Uiso   1.00
C486   C     0.44640   0.06660   0.40040   0.00000  Uiso   1.00
H487   H     0.46240   0.08120   0.42460   0.00000  Uiso   1.00
O488   O     0.29098   0.05460   0.40380   0.00000  Uiso   1.00
O489   O     0.29090   0.02120   0.33780   0.00000  Uiso   1.00
O490   O     0.13859   0.03850   0.39810   0.00000  Uiso   1.00
O491   O     0.19604   0.05480   0.44640   0.00000  Uiso   1.00
C492   C     0.11160   0.05910   0.47150   0.00000  Uiso   1.00
C493   C     0.04040   0.07340   0.53530   0.00000  Uiso   1.00
C494   C     0.06260   0.05630   0.46060   0.00000  Uiso   1.00
H495   H     0.05330   0.04860   0.43130   0.00000  Uiso   1.00
C496   C     0.02740   0.06470   0.49240   0.00000  Uiso   1.00
C497   C     0.12590   0.06980   0.51570   0.00000  Uiso   1.00
H498   H     0.15920   0.07260   0.52270   0.00000  Uiso   1.00
C499   C     0.09140   0.07600   0.54810   0.00000  Uiso   1.00
H500   H     0.10050   0.08180   0.57780   0.00000  Uiso   1.00
C501   C     0.28810   0.93640   0.11940   0.00000  Uiso   1.00
C502   C     0.27600   0.80420   0.08330   0.00000  Uiso   1.00
H503   H     0.26240   0.78730   0.05910   0.00000  Uiso   1.00
C504   C     0.27360   0.85540   0.08320   0.00000  Uiso   1.00
H505   H     0.25900   0.87150   0.05900   0.00000  Uiso   1.00
C506   C     0.31490   0.85560   0.14920   0.00000  Uiso   1.00
H507   H     0.33120   0.87210   0.17220   0.00000  Uiso   1.00
C508   C     0.29270   0.88310   0.11880   0.00000  Uiso   1.00
C509   C     0.30080   0.10020   0.18830   0.00000  Uiso   1.00
C510   C     0.29730   0.77730   0.11700   0.00000  Uiso   1.00
C511   C     0.31660   0.80360   0.15040   0.00000  Uiso   1.00
H512   H     0.33120   0.78760   0.17460   0.00000  Uiso   1.00
O513   O     0.30460   0.95902   0.15380   0.00000  Uiso   1.00
O514   O     0.27120   0.95910   0.08780   0.00000  Uiso   1.00
O515   O     0.28850   0.11141   0.14810   0.00000  Uiso   1.00
O516   O     0.30480   0.05396   0.19640   0.00000  Uiso   1.00
C517   C     0.30910   0.13840   0.22150   0.00000  Uiso   1.00
C518   C     0.32340   0.20960   0.28530   0.00000  Uiso   1.00
C519   C     0.30630   0.18740   0.21060   0.00000  Uiso   1.00
H520   H     0.29860   0.19670   0.18130   0.00000  Uiso   1.00
C521   C     0.31470   0.22260   0.24240   0.00000  Uiso   1.00
C522   C     0.31980   0.12410   0.26570   0.00000  Uiso   1.00
H523   H     0.32260   0.09080   0.27270   0.00000  Uiso   1.00
C524   C     0.32600   0.15860   0.29810   0.00000  Uiso   1.00
H525   H     0.33180   0.14950   0.32780   0.00000  Uiso   1.00
C526   C     0.78810   0.43640   0.61940   0.00000  Uiso   1.00
C527   C     0.77600   0.30420   0.58330   0.00000  Uiso   1.00
H528   H     0.76240   0.28730   0.55910   0.00000  Uiso   1.00
C529   C     0.77360   0.35540   0.58320   0.00000  Uiso   1.00
H530   H     0.75900   0.37150   0.55900   0.00000  Uiso   1.00
C531   C     0.81490   0.35560   0.64920   0.00000  Uiso   1.00
H532   H     0.83120   0.37210   0.67220   0.00000  Uiso   1.00
C533   C     0.79270   0.38310   0.61880   0.00000  Uiso   1.00
C534   C     0.80080   0.60020   0.68830   0.00000  Uiso   1.00
C535   C     0.79730   0.27730   0.61700   0.00000  Uiso   1.00
C536   C     0.81660   0.30360   0.65040   0.00000  Uiso   1.00
H537   H     0.83120   0.28760   0.67460   0.00000  Uiso   1.00
O538   O     0.80460   0.45902   0.65380   0.00000  Uiso   1.00
O539   O     0.77120   0.45910   0.58780   0.00000  Uiso   1.00
O540   O     0.78850   0.61141   0.64810   0.00000  Uiso   1.00
O541   O     0.80480   0.55396   0.69640   0.00000  Uiso   1.00
C542   C     0.80910   0.63840   0.72150   0.00000  Uiso   1.00
C543   C     0.82340   0.70960   0.78530   0.00000  Uiso   1.00
C544   C     0.80630   0.68740   0.71060   0.00000  Uiso   1.00
H545   H     0.79860   0.69670   0.68130   0.00000  Uiso   1.00
C546   C     0.81470   0.72260   0.74240   0.00000  Uiso   1.00
C547   C     0.81980   0.62410   0.76570   0.00000  Uiso   1.00
H548   H     0.82260   0.59080   0.77270   0.00000  Uiso   1.00
C549   C     0.82600   0.65860   0.79810   0.00000  Uiso   1.00
H550   H     0.83180   0.64950   0.82780   0.00000  Uiso   1.00
C551   C     0.21190   0.06360   0.61940   0.00000  Uiso   1.00
C552   C     0.22400   0.19580   0.58330   0.00000  Uiso   1.00
H553   H     0.23760   0.21270   0.55910   0.00000  Uiso   1.00
C554   C     0.22640   0.14460   0.58320   0.00000  Uiso   1.00
H555   H     0.24100   0.12850   0.55900   0.00000  Uiso   1.00
C556   C     0.18510   0.14440   0.64920   0.00000  Uiso   1.00
H557   H     0.16880   0.12790   0.67220   0.00000  Uiso   1.00
C558   C     0.20730   0.11690   0.61880   0.00000  Uiso   1.00
C559   C     0.19920   0.89980   0.68830   0.00000  Uiso   1.00
C560   C     0.20270   0.22270   0.61700   0.00000  Uiso   1.00
C561   C     0.18340   0.19640   0.65040   0.00000  Uiso   1.00
H562   H     0.16880   0.21240   0.67460   0.00000  Uiso   1.00
O563   O     0.19540   0.04098   0.65380   0.00000  Uiso   1.00
O564   O     0.22880   0.04090   0.58780   0.00000  Uiso   1.00
O565   O     0.21150   0.88859   0.64810   0.00000  Uiso   1.00
O566   O     0.19520   0.94604   0.69640   0.00000  Uiso   1.00
C567   C     0.19090   0.86160   0.72150   0.00000  Uiso   1.00
C568   C     0.17660   0.79040   0.78530   0.00000  Uiso   1.00
C569   C     0.19370   0.81260   0.71060   0.00000  Uiso   1.00
H570   H     0.20140   0.80330   0.68130   0.00000  Uiso   1.00
C571   C     0.18530   0.77740   0.74240   0.00000  Uiso   1.00
C572   C     0.18020   0.87590   0.76570   0.00000  Uiso   1.00
H573   H     0.17740   0.90920   0.77270   0.00000  Uiso   1.00
C574   C     0.17400   0.84140   0.79810   0.00000  Uiso   1.00
H575   H     0.16820   0.85050   0.82780   0.00000  Uiso   1.00
C576   C     0.71190   0.56360   0.11940   0.00000  Uiso   1.00
C577   C     0.72400   0.69580   0.08330   0.00000  Uiso   1.00
H578   H     0.73760   0.71270   0.05910   0.00000  Uiso   1.00
C579   C     0.72640   0.64460   0.08320   0.00000  Uiso   1.00
H580   H     0.74100   0.62850   0.05900   0.00000  Uiso   1.00
C581   C     0.68510   0.64440   0.14920   0.00000  Uiso   1.00
H582   H     0.66880   0.62790   0.17220   0.00000  Uiso   1.00
C583   C     0.70730   0.61690   0.11880   0.00000  Uiso   1.00
C584   C     0.69920   0.39980   0.18830   0.00000  Uiso   1.00
C585   C     0.70270   0.72270   0.11700   0.00000  Uiso   1.00
C586   C     0.68340   0.69640   0.15040   0.00000  Uiso   1.00
H587   H     0.66880   0.71240   0.17460   0.00000  Uiso   1.00
O588   O     0.69540   0.54098   0.15380   0.00000  Uiso   1.00
O589   O     0.72880   0.54090   0.08780   0.00000  Uiso   1.00
O590   O     0.71150   0.38859   0.14810   0.00000  Uiso   1.00
O591   O     0.69520   0.44604   0.19640   0.00000  Uiso   1.00
C592   C     0.69090   0.36160   0.22150   0.00000  Uiso   1.00
C593   C     0.67660   0.29040   0.28530   0.00000  Uiso   1.00
C594   C     0.69370   0.31260   0.21060   0.00000  Uiso   1.00
H595   H     0.70140   0.30330   0.18130   0.00000  Uiso   1.00
C596   C     0.68530   0.27740   0.24240   0.00000  Uiso   1.00
C597   C     0.68020   0.37590   0.26570   0.00000  Uiso   1.00
H598   H     0.67740   0.40920   0.27270   0.00000  Uiso   1.00
C599   C     0.67400   0.34140   0.29810   0.00000  Uiso   1.00
H600   H     0.66820   0.35050   0.32780   0.00000  Uiso   1.00
C601   C     0.81360   0.46190   0.13060   0.00000  Uiso   1.00
C602   C     0.94580   0.47400   0.16670   0.00000  Uiso   1.00
H603   H     0.96270   0.48760   0.19090   0.00000  Uiso   1.00
C604   C     0.89460   0.47640   0.16680   0.00000  Uiso   1.00
H605   H     0.87850   0.49100   0.19100   0.00000  Uiso   1.00
C606   C     0.89440   0.43510   0.10080   0.00000  Uiso   1.00
H607   H     0.87790   0.41880   0.07780   0.00000  Uiso   1.00
C608   C     0.86690   0.45730   0.13120   0.00000  Uiso   1.00
C609   C     0.64980   0.44920   0.06170   0.00000  Uiso   1.00
C610   C     0.97270   0.45270   0.13300   0.00000  Uiso   1.00
C611   C     0.94640   0.43340   0.09960   0.00000  Uiso   1.00
H612   H     0.96240   0.41880   0.07540   0.00000  Uiso   1.00
O613   O     0.79098   0.44540   0.09620   0.00000  Uiso   1.00
O614   O     0.79090   0.47880   0.16220   0.00000  Uiso   1.00
O615   O     0.63859   0.46150   0.10190   0.00000  Uiso   1.00
O616   O     0.69604   0.44520   0.05360   0.00000  Uiso   1.00
C617   C     0.61160   0.44090   0.02850   0.00000  Uiso   1.00
C618   C     0.54040   0.42660  -0.03530   0.00000  Uiso   1.00
C619   C     0.56260   0.44370   0.03940   0.00000  Uiso   1.00
H620   H     0.55330   0.45140   0.06870   0.00000  Uiso   1.00
C621   C     0.52740   0.43530   0.00760   0.00000  Uiso   1.00
C622   C     0.62590   0.43020  -0.01570   0.00000  Uiso   1.00
H623   H     0.65920   0.42740  -0.02270   0.00000  Uiso   1.00
C624   C     0.59140   0.42400  -0.04810   0.00000  Uiso   1.00
H625   H     0.60050   0.41820  -0.07780   0.00000  Uiso   1.00
C626   C     0.31360   0.96190   0.63060   0.00000  Uiso   1.00
C627   C     0.44580   0.97400   0.66670   0.00000  Uiso   1.00
H628   H     0.46270   0.98760   0.69090   0.00000  Uiso   1.00
C629   C     0.39460   0.97640   0.66680   0.00000  Uiso   1.00
H630   H     0.37850   0.99100   0.69100   0.00000  Uiso   1.00
C631   C     0.39440   0.93510   0.60080   0.00000  Uiso   1.00
H632   H     0.37790   0.91880   0.57780   0.00000  Uiso   1.00
C633   C     0.36690   0.95730   0.63120   0.00000  Uiso   1.00
C634   C     0.14980   0.94920   0.56170   0.00000  Uiso   1.00
C635   C     0.47270   0.95270   0.63300   0.00000  Uiso   1.00
C636   C     0.44640   0.93340   0.59960   0.00000  Uiso   1.00
H637   H     0.46240   0.91880   0.57540   0.00000  Uiso   1.00
O638   O     0.29098   0.94540   0.59620   0.00000  Uiso   1.00
O639   O     0.29090   0.97880   0.66220   0.00000  Uiso   1.00
O640   O     0.13859   0.96150   0.60190   0.00000  Uiso   1.00
O641   O     0.19604   0.94520   0.55360   0.00000  Uiso   1.00
C642   C     0.11160   0.94090   0.52850   0.00000  Uiso   1.00
C643   C     0.04040   0.92660   0.46470   0.00000  Uiso   1.00
C644   C     0.06260   0.94370   0.53940   0.00000  Uiso   1.00
H645   H     0.05330   0.95140   0.56870   0.00000  Uiso   1.00
C646   C     0.02740   0.93530   0.50760   0.00000  Uiso   1.00
C647   C     0.12590   0.93020   0.48430   0.00000  Uiso   1.00
H648   H     0.15920   0.92740   0.47730   0.00000  Uiso   1.00
C649   C     0.09140   0.92400   0.45190   0.00000  Uiso   1.00
H650   H     0.10050   0.91820   0.42220   0.00000  Uiso   1.00
C651   C     0.68640   0.53810   0.63060   0.00000  Uiso   1.00
C652   C     0.55420   0.52600   0.66670   0.00000  Uiso   1.00
H653   H     0.53730   0.51240   0.69090   0.00000  Uiso   1.00
C654   C     0.60540   0.52360   0.66680   0.00000  Uiso   1.00
H655   H     0.62150   0.50900   0.69100   0.00000  Uiso   1.00
C656   C     0.60560   0.56490   0.60080   0.00000  Uiso   1.00
H657   H     0.62210   0.58120   0.57780   0.00000  Uiso   1.00
C658   C     0.63310   0.54270   0.63120   0.00000  Uiso   1.00
C659   C     0.85020   0.55080   0.56170   0.00000  Uiso   1.00
C660   C     0.52730   0.54730   0.63300   0.00000  Uiso   1.00
C661   C     0.55360   0.56660   0.59960   0.00000  Uiso   1.00
H662   H     0.53760   0.58120   0.57540   0.00000  Uiso   1.00
O663   O     0.70902   0.55460   0.59620   0.00000  Uiso   1.00
O664   O     0.70910   0.52120   0.66220   0.00000  Uiso   1.00
O665   O     0.86141   0.53850   0.60190   0.00000  Uiso   1.00
O666   O     0.80396   0.55480   0.55360   0.00000  Uiso   1.00
C667   C     0.88840   0.55910   0.52850   0.00000  Uiso   1.00
C668   C     0.95960   0.57340   0.46470   0.00000  Uiso   1.00
C669   C     0.93740   0.55630   0.53940   0.00000  Uiso   1.00
H670   H     0.94670   0.54860   0.56870   0.00000  Uiso   1.00
C671   C     0.97260   0.56470   0.50760   0.00000  Uiso   1.00
C672   C     0.87410   0.56980   0.48430   0.00000  Uiso   1.00
H673   H     0.84080   0.57260   0.47730   0.00000  Uiso   1.00
C674   C     0.90860   0.57600   0.45190   0.00000  Uiso   1.00
H675   H     0.89950   0.58180   0.42220   0.00000  Uiso   1.00
C676   C     0.18640   0.03810   0.13060   0.00000  Uiso   1.00
C677   C     0.05420   0.02600   0.16670   0.00000  Uiso   1.00
H678   H     0.03730   0.01240   0.19090   0.00000  Uiso   1.00
C679   C     0.10540   0.02360   0.16680   0.00000  Uiso   1.00
H680   H     0.12150   0.00900   0.19100   0.00000  Uiso   1.00
C681   C     0.10560   0.06490   0.10080   0.00000  Uiso   1.00
H682   H     0.12210   0.08120   0.07780   0.00000  Uiso   1.00
C683   C     0.13310   0.04270   0.13120   0.00000  Uiso   1.00
C684   C     0.35020   0.05080   0.06170   0.00000  Uiso   1.00
C685   C     0.02730   0.04730   0.13300   0.00000  Uiso   1.00
C686   C     0.05360   0.06660   0.09960   0.00000  Uiso   1.00
H687   H     0.03760   0.08120   0.07540   0.00000  Uiso   1.00
O688   O     0.20902   0.05460   0.09620   0.00000  Uiso   1.00
O689   O     0.20910   0.02120   0.16220   0.00000  Uiso   1.00
O690   O     0.36141   0.03850   0.10190   0.00000  Uiso   1.00
O691   O     0.30396   0.05480   0.05360   0.00000  Uiso   1.00
C692   C     0.38840   0.05910   0.02850   0.00000  Uiso   1.00
C693   C     0.45960   0.07340  -0.03530   0.00000  Uiso   1.00
C694   C     0.43740   0.05630   0.03940   0.00000  Uiso   1.00
H695   H     0.44670   0.04860   0.06870   0.00000  Uiso   1.00
C696   C     0.47260   0.06470   0.00760   0.00000  Uiso   1.00
C697   C     0.37410   0.06980  -0.01570   0.00000  Uiso   1.00
H698   H     0.34080   0.07260  -0.02270   0.00000  Uiso   1.00
C699   C     0.40860   0.07600  -0.04810   0.00000  Uiso   1.00
H700   H     0.39950   0.08180  -0.07780   0.00000  Uiso   1.00
C701   C     0.21190   0.93640   0.38060   0.00000  Uiso   1.00
C702   C     0.22400   0.80420   0.41670   0.00000  Uiso   1.00
H703   H     0.23760   0.78730   0.44090   0.00000  Uiso   1.00
C704   C     0.22640   0.85540   0.41680   0.00000  Uiso   1.00
H705   H     0.24100   0.87150   0.44100   0.00000  Uiso   1.00
C706   C     0.18510   0.85560   0.35080   0.00000  Uiso   1.00
H707   H     0.16880   0.87210   0.32780   0.00000  Uiso   1.00
C708   C     0.20730   0.88310   0.38120   0.00000  Uiso   1.00
C709   C     0.19920   0.10020   0.31170   0.00000  Uiso   1.00
C710   C     0.20270   0.77730   0.38300   0.00000  Uiso   1.00
C711   C     0.18340   0.80360   0.34960   0.00000  Uiso   1.00
H712   H     0.16880   0.78760   0.32540   0.00000  Uiso   1.00
O713   O     0.19540   0.95902   0.34620   0.00000  Uiso   1.00
O714   O     0.22880   0.95910   0.41220   0.00000  Uiso   1.00
O715   O     0.21150   0.11141   0.35190   0.00000  Uiso   1.00
O716   O     0.19520   0.05396   0.30360   0.00000  Uiso   1.00
C717   C     0.19090   0.13840   0.27850   0.00000  Uiso   1.00
C718   C     0.17660   0.20960   0.21470   0.00000  Uiso   1.00
C719   C     0.19370   0.18740   0.28940   0.00000  Uiso   1.00
H720   H     0.20140   0.19670   0.31870   0.00000  Uiso   1.00
C721   C     0.18530   0.22260   0.25760   0.00000  Uiso   1.00
C722   C     0.18020   0.12410   0.23430   0.00000  Uiso   1.00
H723   H     0.17740   0.09080   0.22730   0.00000  Uiso   1.00
C724   C     0.17400   0.15860   0.20190   0.00000  Uiso   1.00
H725   H     0.16820   0.14950   0.17220   0.00000  Uiso   1.00
C726   C     0.71190   0.43640   0.88060   0.00000  Uiso   1.00
C727   C     0.72400   0.30420   0.91670   0.00000  Uiso   1.00
H728   H     0.73760   0.28730   0.94090   0.00000  Uiso   1.00
C729   C     0.72640   0.35540   0.91680   0.00000  Uiso   1.00
H730   H     0.74100   0.37150   0.94100   0.00000  Uiso   1.00
C731   C     0.68510   0.35560   0.85080   0.00000  Uiso   1.00
H732   H     0.66880   0.37210   0.82780   0.00000  Uiso   1.00
C733   C     0.70730   0.38310   0.88120   0.00000  Uiso   1.00
C734   C     0.69920   0.60020   0.81170   0.00000  Uiso   1.00
C735   C     0.70270   0.27730   0.88300   0.00000  Uiso   1.00
C736   C     0.68340   0.30360   0.84960   0.00000  Uiso   1.00
H737   H     0.66880   0.28760   0.82540   0.00000  Uiso   1.00
O738   O     0.69540   0.45902   0.84620   0.00000  Uiso   1.00
O739   O     0.72880   0.45910   0.91220   0.00000  Uiso   1.00
O740   O     0.71150   0.61141   0.85190   0.00000  Uiso   1.00
O741   O     0.69520   0.55396   0.80360   0.00000  Uiso   1.00
C742   C     0.69090   0.63840   0.77850   0.00000  Uiso   1.00
C743   C     0.67660   0.70960   0.71470   0.00000  Uiso   1.00
C744   C     0.69370   0.68740   0.78940   0.00000  Uiso   1.00
H745   H     0.70140   0.69670   0.81870   0.00000  Uiso   1.00
C746   C     0.68530   0.72260   0.75760   0.00000  Uiso   1.00
C747   C     0.68020   0.62410   0.73430   0.00000  Uiso   1.00
H748   H     0.67740   0.59080   0.72730   0.00000  Uiso   1.00
C749   C     0.67400   0.65860   0.70190   0.00000  Uiso   1.00
H750   H     0.66820   0.64950   0.67220   0.00000  Uiso   1.00
C751   C     0.28810   0.06360   0.88060   0.00000  Uiso   1.00
C752   C     0.27600   0.19580   0.91670   0.00000  Uiso   1.00
H753   H     0.26240   0.21270   0.94090   0.00000  Uiso   1.00
C754   C     0.27360   0.14460   0.91680   0.00000  Uiso   1.00
H755   H     0.25900   0.12850   0.94100   0.00000  Uiso   1.00
C756   C     0.31490   0.14440   0.85080   0.00000  Uiso   1.00
H757   H     0.33120   0.12790   0.82780   0.00000  Uiso   1.00
C758   C     0.29270   0.11690   0.88120   0.00000  Uiso   1.00
C759   C     0.30080   0.89980   0.81170   0.00000  Uiso   1.00
C760   C     0.29730   0.22270   0.88300   0.00000  Uiso   1.00
C761   C     0.31660   0.19640   0.84960   0.00000  Uiso   1.00
H762   H     0.33120   0.21240   0.82540   0.00000  Uiso   1.00
O763   O     0.30460   0.04098   0.84620   0.00000  Uiso   1.00
O764   O     0.27120   0.04090   0.91220   0.00000  Uiso   1.00
O765   O     0.28850   0.88859   0.85190   0.00000  Uiso   1.00
O766   O     0.30480   0.94604   0.80360   0.00000  Uiso   1.00
C767   C     0.30910   0.86160   0.77850   0.00000  Uiso   1.00
C768   C     0.32340   0.79040   0.71470   0.00000  Uiso   1.00
C769   C     0.30630   0.81260   0.78940   0.00000  Uiso   1.00
H770   H     0.29860   0.80330   0.81870   0.00000  Uiso   1.00
C771   C     0.31470   0.77740   0.75760   0.00000  Uiso   1.00
C772   C     0.31980   0.87590   0.73430   0.00000  Uiso   1.00
H773   H     0.32260   0.90920   0.72730   0.00000  Uiso   1.00
C774   C     0.32600   0.84140   0.70190   0.00000  Uiso   1.00
H775   H     0.33180   0.85050   0.67220   0.00000  Uiso   1.00
C776   C     0.78810   0.56360   0.38060   0.00000  Uiso   1.00
C777   C     0.77600   0.69580   0.41670   0.00000  Uiso   1.00
H778   H     0.76240   0.71270   0.44090   0.00000  Uiso   1.00
C779   C     0.77360   0.64460   0.41680   0.00000  Uiso   1.00
H780   H     0.75900   0.62850   0.44100   0.00000  Uiso   1.00
C781   C     0.81490   0.64440   0.35080   0.00000  Uiso   1.00
H782   H     0.83120   0.62790   0.32780   0.00000  Uiso   1.00
C783   C     0.79270   0.61690   0.38120   0.00000  Uiso   1.00
C784   C     0.80080   0.39980   0.31170   0.00000  Uiso   1.00
C785   C     0.79730   0.72270   0.38300   0.00000  Uiso   1.00
C786   C     0.81660   0.69640   0.34960   0.00000  Uiso   1.00
H787   H     0.83120   0.71240   0.32540   0.00000  Uiso   1.00
O788   O     0.80460   0.54098   0.34620   0.00000  Uiso   1.00
O789   O     0.77120   0.54090   0.41220   0.00000  Uiso   1.00
O790   O     0.78850   0.38859   0.35190   0.00000  Uiso   1.00
O791   O     0.80480   0.44604   0.30360   0.00000  Uiso   1.00
C792   C     0.80910   0.36160   0.27850   0.00000  Uiso   1.00
C793   C     0.82340   0.29040   0.21470   0.00000  Uiso   1.00
C794   C     0.80630   0.31260   0.28940   0.00000  Uiso   1.00
H795   H     0.79860   0.30330   0.31870   0.00000  Uiso   1.00
C796   C     0.81470   0.27740   0.25760   0.00000  Uiso   1.00
C797   C     0.81980   0.37590   0.23430   0.00000  Uiso   1.00
H798   H     0.82260   0.40920   0.22730   0.00000  Uiso   1.00
C799   C     0.82600   0.34140   0.20190   0.00000  Uiso   1.00
H800   H     0.83180   0.35050   0.17220   0.00000  Uiso   1.00
In801  In    0.21669   0.53331   0.62500   0.00000  Uiso   1.00
In802  In    0.28331   0.46669   0.12500   0.00000  Uiso   1.00
In803  In    0.71669   0.96669   0.87500   0.00000  Uiso   1.00
In804  In    0.78331   0.03331   0.37500   0.00000  Uiso   1.00
In805  In    0.28331   0.53331   0.87500   0.00000  Uiso   1.00
In806  In    0.21669   0.46669   0.37500   0.00000  Uiso   1.00
In807  In    0.78331   0.96669   0.62500   0.00000  Uiso   1.00
In808  In    0.71669   0.03331   0.12500   0.00000  Uiso   1.00
In809  In    0.78331   0.46669   0.37500   0.00000  Uiso   1.00
In810  In    0.71669   0.53331   0.87500   0.00000  Uiso   1.00
In811  In    0.28331   0.03331   0.12500   0.00000  Uiso   1.00
In812  In    0.21669   0.96669   0.62500   0.00000  Uiso   1.00
In813  In    0.71669   0.46669   0.12500   0.00000  Uiso   1.00
In814  In    0.78331   0.53331   0.62500   0.00000  Uiso   1.00
In815  In    0.21669   0.03331   0.37500   0.00000  Uiso   1.00
In816  In    0.28331   0.96669   0.87500   0.00000  Uiso   1.00
N817   N     0.00000   0.58040   0.43670   0.00000  Uiso   1.00
H818   H     0.00000   0.56320   0.41240   0.00000  Uiso   1.00
N819   N     0.50000   0.08040  -0.06330   0.00000  Uiso   1.00
H820   H     0.50000   0.06320  -0.08760   0.00000  Uiso   1.00
N821   N     0.50000   0.41960  -0.06330   0.00000  Uiso   1.00
H822   H     0.50000   0.43680  -0.08760   0.00000  Uiso   1.00
N823   N     0.00000   0.91960   0.43670   0.00000  Uiso   1.00
H824   H     0.00000   0.93680   0.41240   0.00000  Uiso   1.00
N825   N     0.66960   0.75000   0.68670   0.00000  Uiso   1.00
H826   H     0.68680   0.75000   0.66240   0.00000  Uiso   1.00
N827   N     0.83040   0.25000   0.18670   0.00000  Uiso   1.00
H828   H     0.81320   0.25000   0.16240   0.00000  Uiso   1.00
N829   N     0.50000   0.58040   1.06330   0.00000  Uiso   1.00
H830   H     0.50000   0.56320   1.08760   0.00000  Uiso   1.00
N831   N     0.00000   0.08040   0.56330   0.00000  Uiso   1.00
H832   H     0.00000   0.06320   0.58760   0.00000  Uiso   1.00
N833   N     0.00000   0.41960   0.56330   0.00000  Uiso   1.00
H834   H     0.00000   0.43680   0.58760   0.00000  Uiso   1.00
N835   N     0.50000   0.91960   1.06330   0.00000  Uiso   1.00
H836   H     0.50000   0.93680   1.08760   0.00000  Uiso   1.00
N837   N     0.83040   0.75000   0.81330   0.00000  Uiso   1.00
H838   H     0.81320   0.75000   0.83760   0.00000  Uiso   1.00
N839   N     0.66960   0.25000   0.31330   0.00000  Uiso   1.00
H840   H     0.68680   0.25000   0.33760   0.00000  Uiso   1.00
N841   N     0.33040   0.25000   0.31330   0.00000  Uiso   1.00
H842   H     0.31320   0.25000   0.33760   0.00000  Uiso   1.00
N843   N     0.16960   0.75000   0.81330   0.00000  Uiso   1.00
H844   H     0.18680   0.75000   0.83760   0.00000  Uiso   1.00
N845   N     0.16960   0.25000   0.18670   0.00000  Uiso   1.00
H846   H     0.18680   0.25000   0.16240   0.00000  Uiso   1.00
N847   N     0.33040   0.75000   0.68670   0.00000  Uiso   1.00
H848   H     0.31320   0.75000   0.66240   0.00000  Uiso   1.00
loop_
_geom_bond_atom_site_label_1
_geom_bond_atom_site_label_2
_geom_bond_distance
_geom_bond_site_symmetry_2
_ccdc_geom_bond_type
C1     C8      1.451   .     S
C1     O13     1.276   .     S
C1     O14     1.215   .     S
C2     H3      0.931   .     S
C2     C4      1.390   .     S
C2     C10     1.369   .     S
C4     H5      0.931   .     S
C4     C8      1.399   .     S
C6     H7      0.930   .     S
C6     C11     1.412   .     S
C6     C8      1.319   .     S
C9     O15     1.280   .     S
C9     O16     1.282   .     S
C9     C17     1.450   .     S
C10    C660    1.481   .     S
C10    C11     1.332   .     S
C11    H12     0.930   .     S
O13    In801   2.265   .     S
O14    In801   2.321   .     S
O15    In801   2.232   .     S
O16    In801   2.275   .     S
C17    C19     1.370   .     S
C17    C22     1.403   .     S
C18    C21     1.347   .     S
C18    C24     1.437   .     S
C18    N817    1.390   .     S
C19    H20     0.932   .     S
C19    C21     1.364   .     S
C21    C671    1.487   1_455 S
C22    H23     0.930   .     S
C22    C24     1.355   .     S
C24    H25     0.932   .     S
C26    C33     1.451   .     S
C26    O38     1.276   .     S
C26    O39     1.215   .     S
C27    H28     0.931   .     S
C27    C29     1.390   .     S
C27    C35     1.369   .     S
C29    H30     0.931   .     S
C29    C33     1.399   .     S
C31    H32     0.930   .     S
C31    C36     1.412   .     S
C31    C33     1.319   .     S
C34    O40     1.280   .     S
C34    O41     1.282   .     S
C34    C42     1.450   .     S
C35    C685    1.481   1_655 S
C35    C36     1.332   .     S
C36    H37     0.930   .     S
O38    In808   2.265   .     S
O39    In808   2.321   .     S
O40    In808   2.232   .     S
O41    In808   2.275   .     S
C42    C44     1.370   .     S
C42    C47     1.403   .     S
C43    C46     1.347   .     S
C43    C49     1.437   .     S
C43    N819    1.390   .     S
C44    H45     0.932   .     S
C44    C46     1.364   .     S
C46    C696    1.487   .     S
C47    H48     0.930   .     S
C47    C49     1.355   .     S
C49    H50     0.932   .     S
C51    C58     1.451   .     S
C51    O63     1.276   .     S
C51    O64     1.215   .     S
C52    H53     0.931   .     S
C52    C54     1.390   .     S
C52    C60     1.369   .     S
C54    H55     0.931   .     S
C54    C58     1.399   .     S
C56    H57     0.930   .     S
C56    C61     1.412   .     S
C56    C58     1.319   .     S
C59    O65     1.280   .     S
C59    O66     1.282   .     S
C59    C67     1.450   .     S
C60    C610    1.481   1_455 S
C60    C61     1.332   .     S
C61    H62     0.930   .     S
O63    In802   2.265   .     S
O64    In802   2.321   .     S
O65    In802   2.232   .     S
O66    In802   2.275   .     S
C67    C69     1.370   .     S
C67    C72     1.403   .     S
C68    C71     1.347   .     S
C68    C74     1.437   .     S
C68    N821    1.390   .     S
C69    H70     0.932   .     S
C69    C71     1.364   .     S
C71    C621    1.487   .     S
C72    H73     0.930   .     S
C72    C74     1.355   .     S
C74    H75     0.932   .     S
C76    C83     1.451   .     S
C76    O88     1.276   .     S
C76    O89     1.215   .     S
C77    H78     0.931   .     S
C77    C79     1.390   .     S
C77    C85     1.369   .     S
C79    H80     0.931   .     S
C79    C83     1.399   .     S
C81    H82     0.930   .     S
C81    C86     1.412   .     S
C81    C83     1.319   .     S
C84    O90     1.280   .     S
C84    O91     1.282   .     S
C84    C92     1.450   .     S
C85    C635    1.481   .     S
C85    C86     1.332   .     S
C86    H87     0.930   .     S
O88    In807   2.265   .     S
O89    In807   2.321   .     S
O90    In807   2.232   .     S
O91    In807   2.275   .     S
C92    C94     1.370   .     S
C92    C97     1.403   .     S
C93    C96     1.347   .     S
C93    C99     1.437   .     S
C93    N823    1.390   1_655 S
C94    H95     0.932   .     S
C94    C96     1.364   .     S
C96    C646    1.487   1_655 S
C97    H98     0.930   .     S
C97    C99     1.355   .     S
C99    H100    0.932   .     S
C101   C108    1.451   .     S
C101   O113    1.276   .     S
C101   O114    1.215   .     S
C102   H103    0.931   .     S
C102   C104    1.390   .     S
C102   C110    1.369   .     S
C104   H105    0.931   .     S
C104   C108    1.399   .     S
C106   H107    0.930   .     S
C106   C111    1.412   .     S
C106   C108    1.319   .     S
C109   O115    1.280   .     S
C109   O116    1.282   .     S
C109   C117    1.450   .     S
C110   C735    1.481   .     S
C110   C111    1.332   .     S
C111   H112    0.930   .     S
O113   In803   2.265   1_545 S
O114   In803   2.321   1_545 S
O115   In803   2.232   .     S
O116   In803   2.275   .     S
C117   C119    1.370   .     S
C117   C122    1.403   .     S
C118   C121    1.347   .     S
C118   C124    1.437   .     S
C118   N825    1.390   .     S
C119   H120    0.932   .     S
C119   C121    1.364   .     S
C121   C746    1.487   .     S
C122   H123    0.930   .     S
C122   C124    1.355   .     S
C124   H125    0.932   .     S
C126   C133    1.451   .     S
C126   O138    1.276   .     S
C126   O139    1.215   .     S
C127   H128    0.931   .     S
C127   C129    1.390   .     S
C127   C135    1.369   .     S
C129   H130    0.931   .     S
C129   C133    1.399   .     S
C131   H132    0.930   .     S
C131   C136    1.412   .     S
C131   C133    1.319   .     S
C134   O140    1.280   .     S
C134   O141    1.282   .     S
C134   C142    1.450   .     S
C135   C710    1.481   .     S
C135   C136    1.332   .     S
C136   H137    0.930   .     S
O138   In806   2.265   .     S
O139   In806   2.321   .     S
O140   In806   2.232   .     S
O141   In806   2.275   .     S
C142   C144    1.370   .     S
C142   C147    1.403   .     S
C143   C146    1.347   .     S
C143   C149    1.437   .     S
C143   N845    1.390   .     S
C144   H145    0.932   .     S
C144   C146    1.364   .     S
C146   C721    1.487   .     S
C147   H148    0.930   .     S
C147   C149    1.355   .     S
C149   H150    0.932   .     S
C151   C158    1.451   .     S
C151   O163    1.276   .     S
C151   O164    1.215   .     S
C152   H153    0.931   .     S
C152   C154    1.390   .     S
C152   C160    1.369   .     S
C154   H155    0.931   .     S
C154   C158    1.399   .     S
C156   H157    0.930   .     S
C156   C161    1.412   .     S
C156   C158    1.319   .     S
C159   O165    1.280   .     S
C159   O166    1.282   .     S
C159   C167    1.450   .     S
C160   C785    1.481   .     S
C160   C161    1.332   .     S
C161   H162    0.930   .     S
O163   In804   2.265   1_565 S
O164   In804   2.321   1_565 S
O165   In804   2.232   .     S
O166   In804   2.275   .     S
C167   C169    1.370   .     S
C167   C172    1.403   .     S
C168   C171    1.347   .     S
C168   C174    1.437   .     S
C168   N827    1.390   .     S
C169   H170    0.932   .     S
C169   C171    1.364   .     S
C171   C796    1.487   .     S
C172   H173    0.930   .     S
C172   C174    1.355   .     S
C174   H175    0.932   .     S
C176   C183    1.451   .     S
C176   O188    1.276   .     S
C176   O189    1.215   .     S
C177   H178    0.931   .     S
C177   C179    1.390   .     S
C177   C185    1.369   .     S
C179   H180    0.931   .     S
C179   C183    1.399   .     S
C181   H182    0.930   .     S
C181   C186    1.412   .     S
C181   C183    1.319   .     S
C184   O190    1.280   .     S
C184   O191    1.282   .     S
C184   C192    1.450   .     S
C185   C760    1.481   .     S
C185   C186    1.332   .     S
C186   H187    0.930   .     S
O188   In805   2.265   .     S
O189   In805   2.321   .     S
O190   In805   2.232   .     S
O191   In805   2.275   .     S
C192   C194    1.370   .     S
C192   C197    1.403   .     S
C193   C196    1.347   .     S
C193   C199    1.437   .     S
C193   N847    1.390   .     S
C194   H195    0.932   .     S
C194   C196    1.364   .     S
C196   C771    1.487   .     S
C197   H198    0.930   .     S
C197   C199    1.355   .     S
C199   H200    0.932   .     S
C201   C208    1.451   .     S
C201   O213    1.276   .     S
C201   O214    1.215   .     S
C202   H203    0.931   .     S
C202   C204    1.390   .     S
C202   C210    1.369   .     S
C204   H205    0.931   .     S
C204   C208    1.399   .     S
C206   H207    0.930   .     S
C206   C211    1.412   .     S
C206   C208    1.319   .     S
C209   O215    1.280   .     S
C209   O216    1.282   .     S
C209   C217    1.450   .     S
C210   C460    1.481   1_455 S
C210   C211    1.332   .     S
C211   H212    0.930   .     S
O213   In805   2.265   .     S
O214   In805   2.321   .     S
O215   In805   2.232   .     S
O216   In805   2.275   .     S
C217   C219    1.370   .     S
C217   C222    1.403   .     S
C218   C221    1.347   .     S
C218   C224    1.437   .     S
C218   N829    1.390   .     S
C219   H220    0.932   .     S
C219   C221    1.364   .     S
C221   C471    1.487   .     S
C222   H223    0.930   .     S
C222   C224    1.355   .     S
C224   H225    0.932   .     S
C226   C233    1.451   .     S
C226   O238    1.276   .     S
C226   O239    1.215   .     S
C227   H228    0.931   .     S
C227   C229    1.390   .     S
C227   C235    1.369   .     S
C229   H230    0.931   .     S
C229   C233    1.399   .     S
C231   H232    0.930   .     S
C231   C236    1.412   .     S
C231   C233    1.319   .     S
C234   O240    1.280   .     S
C234   O241    1.282   .     S
C234   C242    1.450   .     S
C235   C485    1.481   .     S
C235   C236    1.332   .     S
C236   H237    0.930   .     S
O238   In804   2.265   .     S
O239   In804   2.321   .     S
O240   In804   2.232   .     S
O241   In804   2.275   .     S
C242   C244    1.370   .     S
C242   C247    1.403   .     S
C243   C246    1.347   .     S
C243   C249    1.437   .     S
C243   N831    1.390   1_655 S
C244   H245    0.932   .     S
C244   C246    1.364   .     S
C246   C496    1.487   1_655 S
C247   H248    0.930   .     S
C247   C249    1.355   .     S
C249   H250    0.932   .     S
C251   C258    1.451   .     S
C251   O263    1.276   .     S
C251   O264    1.215   .     S
C252   H253    0.931   .     S
C252   C254    1.390   .     S
C252   C260    1.369   .     S
C254   H255    0.931   .     S
C254   C258    1.399   .     S
C256   H257    0.930   .     S
C256   C261    1.412   .     S
C256   C258    1.319   .     S
C259   O265    1.280   .     S
C259   O266    1.282   .     S
C259   C267    1.450   .     S
C260   C410    1.481   .     S
C260   C261    1.332   .     S
C261   H262    0.930   .     S
O263   In806   2.265   .     S
O264   In806   2.321   .     S
O265   In806   2.232   .     S
O266   In806   2.275   .     S
C267   C269    1.370   .     S
C267   C272    1.403   .     S
C268   C271    1.347   .     S
C268   C274    1.437   .     S
C268   N833    1.390   .     S
C269   H270    0.932   .     S
C269   C271    1.364   .     S
C271   C421    1.487   1_455 S
C272   H273    0.930   .     S
C272   C274    1.355   .     S
C274   H275    0.932   .     S
C276   C283    1.451   .     S
C276   O288    1.276   .     S
C276   O289    1.215   .     S
C277   H278    0.931   .     S
C277   C279    1.390   .     S
C277   C285    1.369   .     S
C279   H280    0.931   .     S
C279   C283    1.399   .     S
C281   H282    0.930   .     S
C281   C286    1.412   .     S
C281   C283    1.319   .     S
C284   O290    1.280   .     S
C284   O291    1.282   .     S
C284   C292    1.450   .     S
C285   C435    1.481   1_655 S
C285   C286    1.332   .     S
C286   H287    0.930   .     S
O288   In803   2.265   .     S
O289   In803   2.321   .     S
O290   In803   2.232   .     S
O291   In803   2.275   .     S
C292   C294    1.370   .     S
C292   C297    1.403   .     S
C293   C296    1.347   .     S
C293   C299    1.437   .     S
C293   N835    1.390   .     S
C294   H295    0.932   .     S
C294   C296    1.364   .     S
C296   C446    1.487   .     S
C297   H298    0.930   .     S
C297   C299    1.355   .     S
C299   H300    0.932   .     S
C301   C308    1.451   .     S
C301   O313    1.276   .     S
C301   O314    1.215   .     S
C302   H303    0.931   .     S
C302   C304    1.390   .     S
C302   C310    1.369   .     S
C304   H305    0.931   .     S
C304   C308    1.399   .     S
C306   H307    0.930   .     S
C306   C311    1.412   .     S
C306   C308    1.319   .     S
C309   O315    1.280   .     S
C309   O316    1.282   .     S
C309   C317    1.450   .     S
C310   C535    1.481   .     S
C310   C311    1.332   .     S
C311   H312    0.930   .     S
O313   In807   2.265   1_545 S
O314   In807   2.321   1_545 S
O315   In807   2.232   .     S
O316   In807   2.275   .     S
C317   C319    1.370   .     S
C317   C322    1.403   .     S
C318   C321    1.347   .     S
C318   C324    1.437   .     S
C318   N837    1.390   .     S
C319   H320    0.932   .     S
C319   C321    1.364   .     S
C321   C546    1.487   .     S
C322   H323    0.930   .     S
C322   C324    1.355   .     S
C324   H325    0.932   .     S
C326   C333    1.451   .     S
C326   O338    1.276   .     S
C326   O339    1.215   .     S
C327   H328    0.931   .     S
C327   C329    1.390   .     S
C327   C335    1.369   .     S
C329   H330    0.931   .     S
C329   C333    1.399   .     S
C331   H332    0.930   .     S
C331   C336    1.412   .     S
C331   C333    1.319   .     S
C334   O340    1.280   .     S
C334   O341    1.282   .     S
C334   C342    1.450   .     S
C335   C510    1.481   .     S
C335   C336    1.332   .     S
C336   H337    0.930   .     S
O338   In802   2.265   .     S
O339   In802   2.321   .     S
O340   In802   2.232   .     S
O341   In802   2.275   .     S
C342   C344    1.370   .     S
C342   C347    1.403   .     S
C343   C346    1.347   .     S
C343   C349    1.437   .     S
C343   N841    1.390   .     S
C344   H345    0.932   .     S
C344   C346    1.364   .     S
C346   C521    1.487   .     S
C347   H348    0.930   .     S
C347   C349    1.355   .     S
C349   H350    0.932   .     S
C351   C358    1.451   .     S
C351   O363    1.276   .     S
C351   O364    1.215   .     S
C352   H353    0.931   .     S
C352   C354    1.390   .     S
C352   C360    1.369   .     S
C354   H355    0.931   .     S
C354   C358    1.399   .     S
C356   H357    0.930   .     S
C356   C361    1.412   .     S
C356   C358    1.319   .     S
C359   O365    1.280   .     S
C359   O366    1.282   .     S
C359   C367    1.450   .     S
C360   C585    1.481   .     S
C360   C361    1.332   .     S
C361   H362    0.930   .     S
O363   In808   2.265   1_565 S
O364   In808   2.321   1_565 S
O365   In808   2.232   .     S
O366   In808   2.275   .     S
C367   C369    1.370   .     S
C367   C372    1.403   .     S
C368   C371    1.347   .     S
C368   C374    1.437   .     S
C368   N839    1.390   .     S
C369   H370    0.932   .     S
C369   C371    1.364   .     S
C371   C596    1.487   .     S
C372   H373    0.930   .     S
C372   C374    1.355   .     S
C374   H375    0.932   .     S
C376   C383    1.451   .     S
C376   O388    1.276   .     S
C376   O389    1.215   .     S
C377   H378    0.931   .     S
C377   C379    1.390   .     S
C377   C385    1.369   .     S
C379   H380    0.931   .     S
C379   C383    1.399   .     S
C381   H382    0.930   .     S
C381   C386    1.412   .     S
C381   C383    1.319   .     S
C384   O390    1.280   .     S
C384   O391    1.282   .     S
C384   C392    1.450   .     S
C385   C560    1.481   .     S
C385   C386    1.332   .     S
C386   H387    0.930   .     S
O388   In801   2.265   .     S
O389   In801   2.321   .     S
O390   In801   2.232   .     S
O391   In801   2.275   .     S
C392   C394    1.370   .     S
C392   C397    1.403   .     S
C393   C396    1.347   .     S
C393   C399    1.437   .     S
C393   N843    1.390   .     S
C394   H395    0.932   .     S
C394   C396    1.364   .     S
C396   C571    1.487   .     S
C397   H398    0.930   .     S
C397   C399    1.355   .     S
C399   H400    0.932   .     S
C401   C408    1.451   .     S
C401   O413    1.276   .     S
C401   O414    1.215   .     S
C402   H403    0.931   .     S
C402   C404    1.390   .     S
C402   C410    1.369   .     S
C404   H405    0.931   .     S
C404   C408    1.399   .     S
C406   H407    0.930   .     S
C406   C411    1.412   .     S
C406   C408    1.319   .     S
C409   O415    1.280   .     S
C409   O416    1.282   .     S
C409   C417    1.450   .     S
C410   C411    1.332   .     S
C411   H412    0.930   .     S
O413   In809   2.265   .     S
O414   In809   2.321   .     S
O415   In809   2.232   .     S
O416   In809   2.275   .     S
C417   C419    1.370   .     S
C417   C422    1.403   .     S
C418   C421    1.347   .     S
C418   C424    1.437   .     S
C418   N833    1.390   1_655 S
C419   H420    0.932   .     S
C419   C421    1.364   .     S
C421   C271    1.487   1_655 S
C422   H423    0.930   .     S
C422   C424    1.355   .     S
C424   H425    0.932   .     S
C426   C433    1.451   .     S
C426   O438    1.276   .     S
C426   O439    1.215   .     S
C427   H428    0.931   .     S
C427   C429    1.390   .     S
C427   C435    1.369   .     S
C429   H430    0.931   .     S
C429   C433    1.399   .     S
C431   H432    0.930   .     S
C431   C436    1.412   .     S
C431   C433    1.319   .     S
C434   O440    1.280   .     S
C434   O441    1.282   .     S
C434   C442    1.450   .     S
C435   C285    1.481   1_455 S
C435   C436    1.332   .     S
C436   H437    0.930   .     S
O438   In816   2.265   .     S
O439   In816   2.321   .     S
O440   In816   2.232   .     S
O441   In816   2.275   .     S
C442   C444    1.370   .     S
C442   C447    1.403   .     S
C443   C446    1.347   .     S
C443   C449    1.437   .     S
C443   N835    1.390   .     S
C444   H445    0.932   .     S
C444   C446    1.364   .     S
C447   H448    0.930   .     S
C447   C449    1.355   .     S
C449   H450    0.932   .     S
C451   C458    1.451   .     S
C451   O463    1.276   .     S
C451   O464    1.215   .     S
C452   H453    0.931   .     S
C452   C454    1.390   .     S
C452   C460    1.369   .     S
C454   H455    0.931   .     S
C454   C458    1.399   .     S
C456   H457    0.930   .     S
C456   C461    1.412   .     S
C456   C458    1.319   .     S
C459   O465    1.280   .     S
C459   O466    1.282   .     S
C459   C467    1.450   .     S
C460   C210    1.481   1_655 S
C460   C461    1.332   .     S
C461   H462    0.930   .     S
O463   In810   2.265   .     S
O464   In810   2.321   .     S
O465   In810   2.232   .     S
O466   In810   2.275   .     S
C467   C469    1.370   .     S
C467   C472    1.403   .     S
C468   C471    1.347   .     S
C468   C474    1.437   .     S
C468   N829    1.390   .     S
C469   H470    0.932   .     S
C469   C471    1.364   .     S
C472   H473    0.930   .     S
C472   C474    1.355   .     S
C474   H475    0.932   .     S
C476   C483    1.451   .     S
C476   O488    1.276   .     S
C476   O489    1.215   .     S
C477   H478    0.931   .     S
C477   C479    1.390   .     S
C477   C485    1.369   .     S
C479   H480    0.931   .     S
C479   C483    1.399   .     S
C481   H482    0.930   .     S
C481   C486    1.412   .     S
C481   C483    1.319   .     S
C484   O490    1.280   .     S
C484   O491    1.282   .     S
C484   C492    1.450   .     S
C485   C486    1.332   .     S
C486   H487    0.930   .     S
O488   In815   2.265   .     S
O489   In815   2.321   .     S
O490   In815   2.232   .     S
O491   In815   2.275   .     S
C492   C494    1.370   .     S
C492   C497    1.403   .     S
C493   C496    1.347   .     S
C493   C499    1.437   .     S
C493   N831    1.390   .     S
C494   H495    0.932   .     S
C494   C496    1.364   .     S
C496   C246    1.487   1_455 S
C497   H498    0.930   .     S
C497   C499    1.355   .     S
C499   H500    0.932   .     S
C501   C508    1.451   .     S
C501   O513    1.276   .     S
C501   O514    1.215   .     S
C502   H503    0.931   .     S
C502   C504    1.390   .     S
C502   C510    1.369   .     S
C504   H505    0.931   .     S
C504   C508    1.399   .     S
C506   H507    0.930   .     S
C506   C511    1.412   .     S
C506   C508    1.319   .     S
C509   O515    1.280   .     S
C509   O516    1.282   .     S
C509   C517    1.450   .     S
C510   C511    1.332   .     S
C511   H512    0.930   .     S
O513   In811   2.265   1_565 S
O514   In811   2.321   1_565 S
O515   In811   2.232   .     S
O516   In811   2.275   .     S
C517   C519    1.370   .     S
C517   C522    1.403   .     S
C518   C521    1.347   .     S
C518   C524    1.437   .     S
C518   N841    1.390   .     S
C519   H520    0.932   .     S
C519   C521    1.364   .     S
C522   H523    0.930   .     S
C522   C524    1.355   .     S
C524   H525    0.932   .     S
C526   C533    1.451   .     S
C526   O538    1.276   .     S
C526   O539    1.215   .     S
C527   H528    0.931   .     S
C527   C529    1.390   .     S
C527   C535    1.369   .     S
C529   H530    0.931   .     S
C529   C533    1.399   .     S
C531   H532    0.930   .     S
C531   C536    1.412   .     S
C531   C533    1.319   .     S
C534   O540    1.280   .     S
C534   O541    1.282   .     S
C534   C542    1.450   .     S
C535   C536    1.332   .     S
C536   H537    0.930   .     S
O538   In814   2.265   .     S
O539   In814   2.321   .     S
O540   In814   2.232   .     S
O541   In814   2.275   .     S
C542   C544    1.370   .     S
C542   C547    1.403   .     S
C543   C546    1.347   .     S
C543   C549    1.437   .     S
C543   N837    1.390   .     S
C544   H545    0.932   .     S
C544   C546    1.364   .     S
C547   H548    0.930   .     S
C547   C549    1.355   .     S
C549   H550    0.932   .     S
C551   C558    1.451   .     S
C551   O563    1.276   .     S
C551   O564    1.215   .     S
C552   H553    0.931   .     S
C552   C554    1.390   .     S
C552   C560    1.369   .     S
C554   H555    0.931   .     S
C554   C558    1.399   .     S
C556   H557    0.930   .     S
C556   C561    1.412   .     S
C556   C558    1.319   .     S
C559   O565    1.280   .     S
C559   O566    1.282   .     S
C559   C567    1.450   .     S
C560   C561    1.332   .     S
C561   H562    0.930   .     S
O563   In812   2.265   1_545 S
O564   In812   2.321   1_545 S
O565   In812   2.232   .     S
O566   In812   2.275   .     S
C567   C569    1.370   .     S
C567   C572    1.403   .     S
C568   C571    1.347   .     S
C568   C574    1.437   .     S
C568   N843    1.390   .     S
C569   H570    0.932   .     S
C569   C571    1.364   .     S
C572   H573    0.930   .     S
C572   C574    1.355   .     S
C574   H575    0.932   .     S
C576   C583    1.451   .     S
C576   O588    1.276   .     S
C576   O589    1.215   .     S
C577   H578    0.931   .     S
C577   C579    1.390   .     S
C577   C585    1.369   .     S
C579   H580    0.931   .     S
C579   C583    1.399   .     S
C581   H582    0.930   .     S
C581   C586    1.412   .     S
C581   C583    1.319   .     S
C584   O590    1.280   .     S
C584   O591    1.282   .     S
C584   C592    1.450   .     S
C585   C586    1.332   .     S
C586   H587    0.930   .     S
O588   In813   2.265   .     S
O589   In813   2.321   .     S
O590   In813   2.232   .     S
O591   In813   2.275   .     S
C592   C594    1.370   .     S
C592   C597    1.403   .     S
C593   C596    1.347   .     S
C593   C599    1.437   .     S
C593   N839    1.390   .     S
C594   H595    0.932   .     S
C594   C596    1.364   .     S
C597   H598    0.930   .     S
C597   C599    1.355   .     S
C599   H600    0.932   .     S
C601   C608    1.451   .     S
C601   O613    1.276   .     S
C601   O614    1.215   .     S
C602   H603    0.931   .     S
C602   C604    1.390   .     S
C602   C610    1.369   .     S
C604   H605    0.931   .     S
C604   C608    1.399   .     S
C606   H607    0.930   .     S
C606   C611    1.412   .     S
C606   C608    1.319   .     S
C609   O615    1.280   .     S
C609   O616    1.282   .     S
C609   C617    1.450   .     S
C610   C60     1.481   1_655 S
C610   C611    1.332   .     S
C611   H612    0.930   .     S
O613   In813   2.265   .     S
O614   In813   2.321   .     S
O615   In813   2.232   .     S
O616   In813   2.275   .     S
C617   C619    1.370   .     S
C617   C622    1.403   .     S
C618   C621    1.347   .     S
C618   C624    1.437   .     S
C618   N821    1.390   .     S
C619   H620    0.932   .     S
C619   C621    1.364   .     S
C622   H623    0.930   .     S
C622   C624    1.355   .     S
C624   H625    0.932   .     S
C626   C633    1.451   .     S
C626   O638    1.276   .     S
C626   O639    1.215   .     S
C627   H628    0.931   .     S
C627   C629    1.390   .     S
C627   C635    1.369   .     S
C629   H630    0.931   .     S
C629   C633    1.399   .     S
C631   H632    0.930   .     S
C631   C636    1.412   .     S
C631   C633    1.319   .     S
C634   O640    1.280   .     S
C634   O641    1.282   .     S
C634   C642    1.450   .     S
C635   C636    1.332   .     S
C636   H637    0.930   .     S
O638   In812   2.265   .     S
O639   In812   2.321   .     S
O640   In812   2.232   .     S
O641   In812   2.275   .     S
C642   C644    1.370   .     S
C642   C647    1.403   .     S
C643   C646    1.347   .     S
C643   C649    1.437   .     S
C643   N823    1.390   .     S
C644   H645    0.932   .     S
C644   C646    1.364   .     S
C646   C96     1.487   1_455 S
C647   H648    0.930   .     S
C647   C649    1.355   .     S
C649   H650    0.932   .     S
C651   C658    1.451   .     S
C651   O663    1.276   .     S
C651   O664    1.215   .     S
C652   H653    0.931   .     S
C652   C654    1.390   .     S
C652   C660    1.369   .     S
C654   H655    0.931   .     S
C654   C658    1.399   .     S
C656   H657    0.930   .     S
C656   C661    1.412   .     S
C656   C658    1.319   .     S
C659   O665    1.280   .     S
C659   O666    1.282   .     S
C659   C667    1.450   .     S
C660   C661    1.332   .     S
C661   H662    0.930   .     S
O663   In814   2.265   .     S
O664   In814   2.321   .     S
O665   In814   2.232   .     S
O666   In814   2.275   .     S
C667   C669    1.370   .     S
C667   C672    1.403   .     S
C668   C671    1.347   .     S
C668   C674    1.437   .     S
C668   N817    1.390   1_655 S
C669   H670    0.932   .     S
C669   C671    1.364   .     S
C671   C21     1.487   1_655 S
C672   H673    0.930   .     S
C672   C674    1.355   .     S
C674   H675    0.932   .     S
C676   C683    1.451   .     S
C676   O688    1.276   .     S
C676   O689    1.215   .     S
C677   H678    0.931   .     S
C677   C679    1.390   .     S
C677   C685    1.369   .     S
C679   H680    0.931   .     S
C679   C683    1.399   .     S
C681   H682    0.930   .     S
C681   C686    1.412   .     S
C681   C683    1.319   .     S
C684   O690    1.280   .     S
C684   O691    1.282   .     S
C684   C692    1.450   .     S
C685   C35     1.481   1_455 S
C685   C686    1.332   .     S
C686   H687    0.930   .     S
O688   In811   2.265   .     S
O689   In811   2.321   .     S
O690   In811   2.232   .     S
O691   In811   2.275   .     S
C692   C694    1.370   .     S
C692   C697    1.403   .     S
C693   C696    1.347   .     S
C693   C699    1.437   .     S
C693   N819    1.390   .     S
C694   H695    0.932   .     S
C694   C696    1.364   .     S
C697   H698    0.930   .     S
C697   C699    1.355   .     S
C699   H700    0.932   .     S
C701   C708    1.451   .     S
C701   O713    1.276   .     S
C701   O714    1.215   .     S
C702   H703    0.931   .     S
C702   C704    1.390   .     S
C702   C710    1.369   .     S
C704   H705    0.931   .     S
C704   C708    1.399   .     S
C706   H707    0.930   .     S
C706   C711    1.412   .     S
C706   C708    1.319   .     S
C709   O715    1.280   .     S
C709   O716    1.282   .     S
C709   C717    1.450   .     S
C710   C711    1.332   .     S
C711   H712    0.930   .     S
O713   In815   2.265   1_565 S
O714   In815   2.321   1_565 S
O715   In815   2.232   .     S
O716   In815   2.275   .     S
C717   C719    1.370   .     S
C717   C722    1.403   .     S
C718   C721    1.347   .     S
C718   C724    1.437   .     S
C718   N845    1.390   .     S
C719   H720    0.932   .     S
C719   C721    1.364   .     S
C722   H723    0.930   .     S
C722   C724    1.355   .     S
C724   H725    0.932   .     S
C726   C733    1.451   .     S
C726   O738    1.276   .     S
C726   O739    1.215   .     S
C727   H728    0.931   .     S
C727   C729    1.390   .     S
C727   C735    1.369   .     S
C729   H730    0.931   .     S
C729   C733    1.399   .     S
C731   H732    0.930   .     S
C731   C736    1.412   .     S
C731   C733    1.319   .     S
C734   O740    1.280   .     S
C734   O741    1.282   .     S
C734   C742    1.450   .     S
C735   C736    1.332   .     S
C736   H737    0.930   .     S
O738   In810   2.265   .     S
O739   In810   2.321   .     S
O740   In810   2.232   .     S
O741   In810   2.275   .     S
C742   C744    1.370   .     S
C742   C747    1.403   .     S
C743   C746    1.347   .     S
C743   C749    1.437   .     S
C743   N825    1.390   .     S
C744   H745    0.932   .     S
C744   C746    1.364   .     S
C747   H748    0.930   .     S
C747   C749    1.355   .     S
C749   H750    0.932   .     S
C751   C758    1.451   .     S
C751   O763    1.276   .     S
C751   O764    1.215   .     S
C752   H753    0.931   .     S
C752   C754    1.390   .     S
C752   C760    1.369   .     S
C754   H755    0.931   .     S
C754   C758    1.399   .     S
C756   H757    0.930   .     S
C756   C761    1.412   .     S
C756   C758    1.319   .     S
C759   O765    1.280   .     S
C759   O766    1.282   .     S
C759   C767    1.450   .     S
C760   C761    1.332   .     S
C761   H762    0.930   .     S
O763   In816   2.265   1_545 S
O764   In816   2.321   1_545 S
O765   In816   2.232   .     S
O766   In816   2.275   .     S
C767   C769    1.370   .     S
C767   C772    1.403   .     S
C768   C771    1.347   .     S
C768   C774    1.437   .     S
C768   N847    1.390   .     S
C769   H770    0.932   .     S
C769   C771    1.364   .     S
C772   H773    0.930   .     S
C772   C774    1.355   .     S
C774   H775    0.932   .     S
C776   C783    1.451   .     S
C776   O788    1.276   .     S
C776   O789    1.215   .     S
C777   H778    0.931   .     S
C777   C779    1.390   .     S
C777   C785    1.369   .     S
C779   H780    0.931   .     S
C779   C783    1.399   .     S
C781   H782    0.930   .     S
C781   C786    1.412   .     S
C781   C783    1.319   .     S
C784   O790    1.280   .     S
C784   O791    1.282   .     S
C784   C792    1.450   .     S
C785   C786    1.332   .     S
C786   H787    0.930   .     S
O788   In809   2.265   .     S
O789   In809   2.321   .     S
O790   In809   2.232   .     S
O791   In809   2.275   .     S
C792   C794    1.370   .     S
C792   C797    1.403   .     S
C793   C796    1.347   .     S
C793   C799    1.437   .     S
C793   N827    1.390   .     S
C794   H795    0.932   .     S
C794   C796    1.364   .     S
C797   H798    0.930   .     S
C797   C799    1.355   .     S
C799   H800    0.932   .     S
In803  O113    2.265   1_565 S
In803  O114    2.321   1_565 S
In804  O163    2.265   1_545 S
In804  O164    2.321   1_545 S
In807  O313    2.265   1_565 S
In807  O314    2.321   1_565 S
In808  O363    2.265   1_545 S
In808  O364    2.321   1_545 S
In811  O513    2.265   1_545 S
In811  O514    2.321   1_545 S
In812  O563    2.265   1_565 S
In812  O564    2.321   1_565 S
In815  O713    2.265   1_545 S
In815  O714    2.321   1_545 S
In816  O763    2.265   1_565 S
In816  O764    2.321   1_565 S
N817   C668    1.390   1_455 S
N817   H818    0.861   .     S
N819   H820    0.861   .     S
N821   H822    0.861   .     S
N823   C93     1.390   1_455 S
N823   H824    0.861   .     S
N825   H826    0.861   .     S
N827   H828    0.861   .     S
N829   H830    0.861   .     S
N831   C243    1.390   1_455 S
N831   H832    0.861   .     S
N833   C418    1.390   1_455 S
N833   H834    0.861   .     S
N835   H836    0.861   .     S
N837   H838    0.861   .     S
N839   H840    0.861   .     S
N841   H842    0.861   .     S
N843   H844    0.861   .     S
N845   H846    0.861   .     S
N847   H848    0.861   .     S
