data_BAMNEL_FSR
_audit_creation_date              2024-06-11
_audit_creation_method            'Materials Studio'
_symmetry_space_group_name_H-M    'P1'
_symmetry_Int_Tables_number       1
_symmetry_cell_setting            triclinic
loop_
_symmetry_equiv_pos_as_xyz
  x,y,z
_cell_length_a                    19.6030
_cell_length_b                    19.6030
_cell_length_c                    13.9390
_cell_angle_alpha                 90.0000
_cell_angle_beta                  90.0000
_cell_angle_gamma                 120.0000
loop_
_atom_site_label
_atom_site_type_symbol
_atom_site_fract_x
_atom_site_fract_y
_atom_site_fract_z
_atom_site_U_iso_or_equiv
_atom_site_adp_type
_atom_site_occupancy
N1     N     0.80750   0.33280   0.66110   0.06267  Uani   1.00
N2     N     0.77960   0.37030   0.60100   0.06511  Uani   1.00
N3     N     0.90330   0.40900   0.56410   0.07811  Uani   1.00
C4     C     0.83770   0.41570   0.54430   0.07967  Uani   1.00
C5     C     0.88160   0.35670   0.63660   0.07333  Uani   1.00
C6     C     0.92950   0.33390   0.68850   0.12133  Uani   1.00
H7     H     0.89463   0.29552   0.73612   0.14500  Uiso   1.00
C8     C     0.82320   0.46490   0.47300   0.14633  Uani   1.00
H9     H     0.76966   0.45581   0.48189   0.17500  Uiso   1.00
C10    C     0.83180   0.44280   0.37110   0.17511  Uani   1.00
H11    H     0.79688   0.38742   0.36166   0.26300  Uiso   1.00
H12    H     0.81879   0.47197   0.32668   0.26300  Uiso   1.00
H13    H     0.88514   0.45505   0.36069   0.26300  Uiso   1.00
C14    C     0.00160   0.39340   0.74400   0.21289  Uani   1.00
H15    H     0.02615   0.36713   0.77404   0.32000  Uiso   1.00
H16    H     0.03823   0.43292   0.70075   0.32000  Uiso   1.00
H17    H     0.98598   0.41789   0.79215   0.32000  Uiso   1.00
C18    C     0.88120   0.55280   0.47680   0.17333  Uani   1.00
H19    H     0.87998   0.57256   0.53944   0.26000  Uiso   1.00
H20    H     0.93329   0.56231   0.46367   0.26000  Uiso   1.00
H21    H     0.86694   0.57922   0.42965   0.26000  Uiso   1.00
C22    C     0.96090   0.29090   0.62830   0.21478  Uani   1.00
H23    H     0.99252   0.27745   0.66779   0.32300  Uiso   1.00
H24    H     0.91753   0.24380   0.60237   0.32300  Uiso   1.00
H25    H     0.99235   0.32443   0.57687   0.32300  Uiso   1.00
N26    N     0.66720   0.47470   0.66110   0.06267  Uani   1.00
N27    N     0.62970   0.40930   0.60100   0.06511  Uani   1.00
N28    N     0.59100   0.49430   0.56410   0.07811  Uani   1.00
C29    C     0.58430   0.42200   0.54430   0.07967  Uani   1.00
C30    C     0.64330   0.52490   0.63660   0.07333  Uani   1.00
C31    C     0.66610   0.59560   0.68850   0.12133  Uani   1.00
H32    H     0.70448   0.59910   0.73612   0.14500  Uiso   1.00
C33    C     0.53510   0.35830   0.47300   0.14633  Uani   1.00
H34    H     0.54419   0.31385   0.48189   0.17500  Uiso   1.00
C35    C     0.55720   0.38900   0.37110   0.17511  Uani   1.00
H36    H     0.61258   0.40947   0.36166   0.26300  Uiso   1.00
H37    H     0.52803   0.34683   0.32668   0.26300  Uiso   1.00
H38    H     0.54495   0.43009   0.36069   0.26300  Uiso   1.00
C39    C     0.60660   0.60820   0.74400   0.21289  Uani   1.00
H40    H     0.63287   0.65902   0.77404   0.32000  Uiso   1.00
H41    H     0.56708   0.60531   0.70075   0.32000  Uiso   1.00
H42    H     0.58211   0.56809   0.79215   0.32000  Uiso   1.00
C43    C     0.44720   0.32840   0.47680   0.17333  Uani   1.00
H44    H     0.42744   0.30743   0.53944   0.26000  Uiso   1.00
H45    H     0.43769   0.37098   0.46367   0.26000  Uiso   1.00
H46    H     0.42078   0.28772   0.42965   0.26000  Uiso   1.00
C47    C     0.70910   0.67000   0.62830   0.21478  Uani   1.00
H48    H     0.72255   0.71507   0.66779   0.32300  Uiso   1.00
H49    H     0.75620   0.67373   0.60237   0.32300  Uiso   1.00
H50    H     0.67557   0.66792   0.57687   0.32300  Uiso   1.00
N51    N     0.52530   0.19250   0.66110   0.06267  Uani   1.00
N52    N     0.59070   0.22040   0.60100   0.06511  Uani   1.00
N53    N     0.50570   0.09670   0.56410   0.07811  Uani   1.00
C54    C     0.57800   0.16230   0.54430   0.07967  Uani   1.00
C55    C     0.47510   0.11840   0.63660   0.07333  Uani   1.00
C56    C     0.40440   0.07050   0.68850   0.12133  Uani   1.00
H57    H     0.40090   0.10537   0.73612   0.14500  Uiso   1.00
C58    C     0.64170   0.17680   0.47300   0.14633  Uani   1.00
H59    H     0.68615   0.23034   0.48189   0.17500  Uiso   1.00
C60    C     0.61100   0.16820   0.37110   0.17511  Uani   1.00
H61    H     0.59053   0.20312   0.36166   0.26300  Uiso   1.00
H62    H     0.65317   0.18121   0.32668   0.26300  Uiso   1.00
H63    H     0.56991   0.11486   0.36069   0.26300  Uiso   1.00
C64    C     0.39180   0.99840   0.74400   0.21289  Uani   1.00
H65    H     0.34098   0.97385   0.77404   0.32000  Uiso   1.00
H66    H     0.39469   0.96177   0.70075   0.32000  Uiso   1.00
H67    H     0.43191   0.01402   0.79215   0.32000  Uiso   1.00
C68    C     0.67160   0.11880   0.47680   0.17333  Uani   1.00
H69    H     0.69257   0.12002   0.53944   0.26000  Uiso   1.00
H70    H     0.62902   0.06671   0.46367   0.26000  Uiso   1.00
H71    H     0.71228   0.13306   0.42965   0.26000  Uiso   1.00
C72    C     0.33000   0.03910   0.62830   0.21478  Uani   1.00
H73    H     0.28493   0.00748   0.66779   0.32300  Uiso   1.00
H74    H     0.32627   0.08247   0.60237   0.32300  Uiso   1.00
H75    H     0.33208   0.00765   0.57687   0.32300  Uiso   1.00
N76    N     0.19250   0.66720   0.16110   0.06267  Uani   1.00
N77    N     0.22040   0.62970   0.10100   0.06511  Uani   1.00
N78    N     0.09670   0.59100   0.06410   0.07811  Uani   1.00
C79    C     0.16230   0.58430   0.04430   0.07967  Uani   1.00
C80    C     0.11840   0.64330   0.13660   0.07333  Uani   1.00
C81    C     0.07050   0.66610   0.18850   0.12133  Uani   1.00
H82    H     0.10537   0.70448   0.23612   0.14500  Uiso   1.00
C83    C     0.17680   0.53510   0.97300   0.14633  Uani   1.00
H84    H     0.23034   0.54419   0.98189   0.17500  Uiso   1.00
C85    C     0.16820   0.55720   0.87110   0.17511  Uani   1.00
H86    H     0.20312   0.61258   0.86166   0.26300  Uiso   1.00
H87    H     0.18121   0.52803   0.82668   0.26300  Uiso   1.00
H88    H     0.11486   0.54495   0.86069   0.26300  Uiso   1.00
C89    C     0.99840   0.60660   0.24400   0.21289  Uani   1.00
H90    H     0.97385   0.63287   0.27404   0.32000  Uiso   1.00
H91    H     0.96177   0.56708   0.20075   0.32000  Uiso   1.00
H92    H     0.01402   0.58211   0.29215   0.32000  Uiso   1.00
C93    C     0.11880   0.44720   0.97680   0.17333  Uani   1.00
H94    H     0.12002   0.42744   0.03944   0.26000  Uiso   1.00
H95    H     0.06671   0.43769   0.96367   0.26000  Uiso   1.00
H96    H     0.13306   0.42078   0.92965   0.26000  Uiso   1.00
C97    C     0.03910   0.70910   0.12830   0.21478  Uani   1.00
H98    H     0.00748   0.72255   0.16779   0.32300  Uiso   1.00
H99    H     0.08247   0.75620   0.10237   0.32300  Uiso   1.00
H100   H     0.00765   0.67557   0.07687   0.32300  Uiso   1.00
N101   N     0.33280   0.52530   0.16110   0.06267  Uani   1.00
N102   N     0.37030   0.59070   0.10100   0.06511  Uani   1.00
N103   N     0.40900   0.50570   0.06410   0.07811  Uani   1.00
C104   C     0.41570   0.57800   0.04430   0.07967  Uani   1.00
C105   C     0.35670   0.47510   0.13660   0.07333  Uani   1.00
C106   C     0.33390   0.40440   0.18850   0.12133  Uani   1.00
H107   H     0.29552   0.40090   0.23612   0.14500  Uiso   1.00
C108   C     0.46490   0.64170   0.97300   0.14633  Uani   1.00
H109   H     0.45581   0.68615   0.98189   0.17500  Uiso   1.00
C110   C     0.44280   0.61100   0.87110   0.17511  Uani   1.00
H111   H     0.38742   0.59053   0.86166   0.26300  Uiso   1.00
H112   H     0.47197   0.65317   0.82668   0.26300  Uiso   1.00
H113   H     0.45505   0.56991   0.86069   0.26300  Uiso   1.00
C114   C     0.39340   0.39180   0.24400   0.21289  Uani   1.00
H115   H     0.36713   0.34098   0.27404   0.32000  Uiso   1.00
H116   H     0.43292   0.39469   0.20075   0.32000  Uiso   1.00
H117   H     0.41789   0.43191   0.29215   0.32000  Uiso   1.00
C118   C     0.55280   0.67160   0.97680   0.17333  Uani   1.00
H119   H     0.57256   0.69257   0.03944   0.26000  Uiso   1.00
H120   H     0.56231   0.62902   0.96367   0.26000  Uiso   1.00
H121   H     0.57922   0.71228   0.92965   0.26000  Uiso   1.00
C122   C     0.29090   0.33000   0.12830   0.21478  Uani   1.00
H123   H     0.27745   0.28493   0.16779   0.32300  Uiso   1.00
H124   H     0.24380   0.32627   0.10237   0.32300  Uiso   1.00
H125   H     0.32443   0.33208   0.07687   0.32300  Uiso   1.00
N126   N     0.47470   0.80750   0.16110   0.06267  Uani   1.00
N127   N     0.40930   0.77960   0.10100   0.06511  Uani   1.00
N128   N     0.49430   0.90330   0.06410   0.07811  Uani   1.00
C129   C     0.42200   0.83770   0.04430   0.07967  Uani   1.00
C130   C     0.52490   0.88160   0.13660   0.07333  Uani   1.00
C131   C     0.59560   0.92950   0.18850   0.12133  Uani   1.00
H132   H     0.59910   0.89463   0.23612   0.14500  Uiso   1.00
C133   C     0.35830   0.82320   0.97300   0.14633  Uani   1.00
H134   H     0.31385   0.76966   0.98189   0.17500  Uiso   1.00
C135   C     0.38900   0.83180   0.87110   0.17511  Uani   1.00
H136   H     0.40947   0.79688   0.86166   0.26300  Uiso   1.00
H137   H     0.34683   0.81879   0.82668   0.26300  Uiso   1.00
H138   H     0.43009   0.88514   0.86069   0.26300  Uiso   1.00
C139   C     0.60820   0.00160   0.24400   0.21289  Uani   1.00
H140   H     0.65902   0.02615   0.27404   0.32000  Uiso   1.00
H141   H     0.60531   0.03823   0.20075   0.32000  Uiso   1.00
H142   H     0.56809   0.98598   0.29215   0.32000  Uiso   1.00
C143   C     0.32840   0.88120   0.97680   0.17333  Uani   1.00
H144   H     0.30743   0.87998   0.03944   0.26000  Uiso   1.00
H145   H     0.37098   0.93329   0.96367   0.26000  Uiso   1.00
H146   H     0.28772   0.86694   0.92965   0.26000  Uiso   1.00
C147   C     0.67000   0.96090   0.12830   0.21478  Uani   1.00
H148   H     0.71507   0.99252   0.16779   0.32300  Uiso   1.00
H149   H     0.67373   0.91753   0.10237   0.32300  Uiso   1.00
H150   H     0.66792   0.99235   0.07687   0.32300  Uiso   1.00
N151   N     0.33280   0.80750   0.33890   0.06267  Uani   1.00
N152   N     0.37030   0.77960   0.39900   0.06511  Uani   1.00
N153   N     0.40900   0.90330   0.43590   0.07811  Uani   1.00
C154   C     0.41570   0.83770   0.45570   0.07967  Uani   1.00
C155   C     0.35670   0.88160   0.36340   0.07333  Uani   1.00
C156   C     0.33390   0.92950   0.31150   0.12133  Uani   1.00
H157   H     0.29552   0.89463   0.26388   0.14500  Uiso   1.00
C158   C     0.46490   0.82320   0.52700   0.14633  Uani   1.00
H159   H     0.45581   0.76966   0.51811   0.17500  Uiso   1.00
C160   C     0.44280   0.83180   0.62890   0.17511  Uani   1.00
H161   H     0.38742   0.79688   0.63834   0.26300  Uiso   1.00
H162   H     0.47197   0.81879   0.67332   0.26300  Uiso   1.00
H163   H     0.45505   0.88514   0.63931   0.26300  Uiso   1.00
C164   C     0.39340   0.00160   0.25600   0.21289  Uani   1.00
H165   H     0.36713   0.02615   0.22596   0.32000  Uiso   1.00
H166   H     0.43292   0.03823   0.29925   0.32000  Uiso   1.00
H167   H     0.41789   0.98598   0.20785   0.32000  Uiso   1.00
C168   C     0.55280   0.88120   0.52320   0.17333  Uani   1.00
H169   H     0.57256   0.87998   0.46056   0.26000  Uiso   1.00
H170   H     0.56231   0.93329   0.53633   0.26000  Uiso   1.00
H171   H     0.57922   0.86694   0.57035   0.26000  Uiso   1.00
C172   C     0.29090   0.96090   0.37170   0.21478  Uani   1.00
H173   H     0.27745   0.99252   0.33221   0.32300  Uiso   1.00
H174   H     0.24380   0.91753   0.39763   0.32300  Uiso   1.00
H175   H     0.32443   0.99235   0.42313   0.32300  Uiso   1.00
N176   N     0.47470   0.66720   0.33890   0.06267  Uani   1.00
N177   N     0.40930   0.62970   0.39900   0.06511  Uani   1.00
N178   N     0.49430   0.59100   0.43590   0.07811  Uani   1.00
C179   C     0.42200   0.58430   0.45570   0.07967  Uani   1.00
C180   C     0.52490   0.64330   0.36340   0.07333  Uani   1.00
C181   C     0.59560   0.66610   0.31150   0.12133  Uani   1.00
H182   H     0.59910   0.70448   0.26388   0.14500  Uiso   1.00
C183   C     0.35830   0.53510   0.52700   0.14633  Uani   1.00
H184   H     0.31385   0.54419   0.51811   0.17500  Uiso   1.00
C185   C     0.38900   0.55720   0.62890   0.17511  Uani   1.00
H186   H     0.40947   0.61258   0.63834   0.26300  Uiso   1.00
H187   H     0.34683   0.52803   0.67332   0.26300  Uiso   1.00
H188   H     0.43009   0.54495   0.63931   0.26300  Uiso   1.00
C189   C     0.60820   0.60660   0.25600   0.21289  Uani   1.00
H190   H     0.65902   0.63287   0.22596   0.32000  Uiso   1.00
H191   H     0.60531   0.56708   0.29925   0.32000  Uiso   1.00
H192   H     0.56809   0.58211   0.20785   0.32000  Uiso   1.00
C193   C     0.32840   0.44720   0.52320   0.17333  Uani   1.00
H194   H     0.30743   0.42744   0.46056   0.26000  Uiso   1.00
H195   H     0.37098   0.43769   0.53633   0.26000  Uiso   1.00
H196   H     0.28772   0.42078   0.57035   0.26000  Uiso   1.00
C197   C     0.67000   0.70910   0.37170   0.21478  Uani   1.00
H198   H     0.71507   0.72255   0.33221   0.32300  Uiso   1.00
H199   H     0.67373   0.75620   0.39763   0.32300  Uiso   1.00
H200   H     0.66792   0.67557   0.42313   0.32300  Uiso   1.00
N201   N     0.19250   0.52530   0.33890   0.06267  Uani   1.00
N202   N     0.22040   0.59070   0.39900   0.06511  Uani   1.00
N203   N     0.09670   0.50570   0.43590   0.07811  Uani   1.00
C204   C     0.16230   0.57800   0.45570   0.07967  Uani   1.00
C205   C     0.11840   0.47510   0.36340   0.07333  Uani   1.00
C206   C     0.07050   0.40440   0.31150   0.12133  Uani   1.00
H207   H     0.10537   0.40090   0.26388   0.14500  Uiso   1.00
C208   C     0.17680   0.64170   0.52700   0.14633  Uani   1.00
H209   H     0.23034   0.68615   0.51811   0.17500  Uiso   1.00
C210   C     0.16820   0.61100   0.62890   0.17511  Uani   1.00
H211   H     0.20312   0.59053   0.63834   0.26300  Uiso   1.00
H212   H     0.18121   0.65317   0.67332   0.26300  Uiso   1.00
H213   H     0.11486   0.56991   0.63931   0.26300  Uiso   1.00
C214   C     0.99840   0.39180   0.25600   0.21289  Uani   1.00
H215   H     0.97385   0.34098   0.22596   0.32000  Uiso   1.00
H216   H     0.96177   0.39469   0.29925   0.32000  Uiso   1.00
H217   H     0.01402   0.43191   0.20785   0.32000  Uiso   1.00
C218   C     0.11880   0.67160   0.52320   0.17333  Uani   1.00
H219   H     0.12002   0.69257   0.46056   0.26000  Uiso   1.00
H220   H     0.06671   0.62902   0.53633   0.26000  Uiso   1.00
H221   H     0.13306   0.71228   0.57035   0.26000  Uiso   1.00
C222   C     0.03910   0.33000   0.37170   0.21478  Uani   1.00
H223   H     0.00748   0.28493   0.33221   0.32300  Uiso   1.00
H224   H     0.08247   0.32627   0.39763   0.32300  Uiso   1.00
H225   H     0.00765   0.33208   0.42313   0.32300  Uiso   1.00
N226   N     0.66720   0.19250   0.83890   0.06267  Uani   1.00
N227   N     0.62970   0.22040   0.89900   0.06511  Uani   1.00
N228   N     0.59100   0.09670   0.93590   0.07811  Uani   1.00
C229   C     0.58430   0.16230   0.95570   0.07967  Uani   1.00
C230   C     0.64330   0.11840   0.86340   0.07333  Uani   1.00
C231   C     0.66610   0.07050   0.81150   0.12133  Uani   1.00
H232   H     0.70448   0.10537   0.76388   0.14500  Uiso   1.00
C233   C     0.53510   0.17680   0.02700   0.14633  Uani   1.00
H234   H     0.54419   0.23034   0.01811   0.17500  Uiso   1.00
C235   C     0.55720   0.16820   0.12890   0.17511  Uani   1.00
H236   H     0.61258   0.20312   0.13834   0.26300  Uiso   1.00
H237   H     0.52803   0.18121   0.17332   0.26300  Uiso   1.00
H238   H     0.54495   0.11486   0.13931   0.26300  Uiso   1.00
C239   C     0.60660   0.99840   0.75600   0.21289  Uani   1.00
H240   H     0.63287   0.97385   0.72596   0.32000  Uiso   1.00
H241   H     0.56708   0.96177   0.79925   0.32000  Uiso   1.00
H242   H     0.58211   0.01402   0.70785   0.32000  Uiso   1.00
C243   C     0.44720   0.11880   0.02320   0.17333  Uani   1.00
H244   H     0.42744   0.12002   0.96056   0.26000  Uiso   1.00
H245   H     0.43769   0.06671   0.03633   0.26000  Uiso   1.00
H246   H     0.42078   0.13306   0.07035   0.26000  Uiso   1.00
C247   C     0.70910   0.03910   0.87170   0.21478  Uani   1.00
H248   H     0.72255   0.00748   0.83221   0.32300  Uiso   1.00
H249   H     0.75620   0.08247   0.89763   0.32300  Uiso   1.00
H250   H     0.67557   0.00765   0.92313   0.32300  Uiso   1.00
N251   N     0.52530   0.33280   0.83890   0.06267  Uani   1.00
N252   N     0.59070   0.37030   0.89900   0.06511  Uani   1.00
N253   N     0.50570   0.40900   0.93590   0.07811  Uani   1.00
C254   C     0.57800   0.41570   0.95570   0.07967  Uani   1.00
C255   C     0.47510   0.35670   0.86340   0.07333  Uani   1.00
C256   C     0.40440   0.33390   0.81150   0.12133  Uani   1.00
H257   H     0.40090   0.29552   0.76388   0.14500  Uiso   1.00
C258   C     0.64170   0.46490   0.02700   0.14633  Uani   1.00
H259   H     0.68615   0.45581   0.01811   0.17500  Uiso   1.00
C260   C     0.61100   0.44280   0.12890   0.17511  Uani   1.00
H261   H     0.59053   0.38742   0.13834   0.26300  Uiso   1.00
H262   H     0.65317   0.47197   0.17332   0.26300  Uiso   1.00
H263   H     0.56991   0.45505   0.13931   0.26300  Uiso   1.00
C264   C     0.39180   0.39340   0.75600   0.21289  Uani   1.00
H265   H     0.34098   0.36713   0.72596   0.32000  Uiso   1.00
H266   H     0.39469   0.43292   0.79925   0.32000  Uiso   1.00
H267   H     0.43191   0.41789   0.70785   0.32000  Uiso   1.00
C268   C     0.67160   0.55280   0.02320   0.17333  Uani   1.00
H269   H     0.69257   0.57256   0.96056   0.26000  Uiso   1.00
H270   H     0.62902   0.56231   0.03633   0.26000  Uiso   1.00
H271   H     0.71228   0.57922   0.07035   0.26000  Uiso   1.00
C272   C     0.33000   0.29090   0.87170   0.21478  Uani   1.00
H273   H     0.28493   0.27745   0.83221   0.32300  Uiso   1.00
H274   H     0.32627   0.24380   0.89763   0.32300  Uiso   1.00
H275   H     0.33208   0.32443   0.92313   0.32300  Uiso   1.00
N276   N     0.80750   0.47470   0.83890   0.06267  Uani   1.00
N277   N     0.77960   0.40930   0.89900   0.06511  Uani   1.00
N278   N     0.90330   0.49430   0.93590   0.07811  Uani   1.00
C279   C     0.83770   0.42200   0.95570   0.07967  Uani   1.00
C280   C     0.88160   0.52490   0.86340   0.07333  Uani   1.00
C281   C     0.92950   0.59560   0.81150   0.12133  Uani   1.00
H282   H     0.89463   0.59910   0.76388   0.14500  Uiso   1.00
C283   C     0.82320   0.35830   0.02700   0.14633  Uani   1.00
H284   H     0.76966   0.31385   0.01811   0.17500  Uiso   1.00
C285   C     0.83180   0.38900   0.12890   0.17511  Uani   1.00
H286   H     0.79688   0.40947   0.13834   0.26300  Uiso   1.00
H287   H     0.81879   0.34683   0.17332   0.26300  Uiso   1.00
H288   H     0.88514   0.43009   0.13931   0.26300  Uiso   1.00
C289   C     0.00160   0.60820   0.75600   0.21289  Uani   1.00
H290   H     0.02615   0.65902   0.72596   0.32000  Uiso   1.00
H291   H     0.03823   0.60531   0.79925   0.32000  Uiso   1.00
H292   H     0.98598   0.56809   0.70785   0.32000  Uiso   1.00
C293   C     0.88120   0.32840   0.02320   0.17333  Uani   1.00
H294   H     0.87998   0.30743   0.96056   0.26000  Uiso   1.00
H295   H     0.93329   0.37098   0.03633   0.26000  Uiso   1.00
H296   H     0.86694   0.28772   0.07035   0.26000  Uiso   1.00
C297   C     0.96090   0.67000   0.87170   0.21478  Uani   1.00
H298   H     0.99252   0.71507   0.83221   0.32300  Uiso   1.00
H299   H     0.91753   0.67373   0.89763   0.32300  Uiso   1.00
H300   H     0.99235   0.66792   0.92313   0.32300  Uiso   1.00
Cu301  Cu    0.66667   0.33333   0.60138   0.05990  Uani   1.00
Cu302  Cu    0.33333   0.66667   0.10138   0.05990  Uani   1.00
Cu303  Cu    0.33333   0.66667   0.39862   0.05990  Uani   1.00
Cu304  Cu    0.66667   0.33333   0.89862   0.05990  Uani   1.00
Cu305  Cu    0.73834   0.26166   0.75000   0.06250  Uani   1.00
Cu306  Cu    0.73834   0.47668   0.75000   0.06250  Uani   1.00
Cu307  Cu    0.52332   0.26166   0.75000   0.06250  Uani   1.00
Cu308  Cu    0.26166   0.73834   0.25000   0.06250  Uani   1.00
Cu309  Cu    0.26166   0.52332   0.25000   0.06250  Uani   1.00
Cu310  Cu    0.47668   0.73834   0.25000   0.06250  Uani   1.00
Cu311  Cu   -0.00000   0.45958   0.50000   0.09360  Uani   1.00
Cu312  Cu    0.54042   0.54042   0.50000   0.09360  Uani   1.00
Cu313  Cu    0.45958   0.00000   0.50000   0.09360  Uani   1.00
Cu314  Cu    0.00000   0.54042  -0.00000   0.09360  Uani   1.00
Cu315  Cu    0.45958   0.45958  -0.00000   0.09360  Uani   1.00
Cu316  Cu    0.54042  -0.00000  -0.00000   0.09360  Uani   1.00
loop_
_atom_site_aniso_label
_atom_site_aniso_U_11
_atom_site_aniso_U_22
_atom_site_aniso_U_33
_atom_site_aniso_U_12
_atom_site_aniso_U_13
_atom_site_aniso_U_23
N1        0.05700   0.06900   0.05600   0.02700   0.01000   0.00700
N2        0.06200   0.07100   0.05400   0.02700   0.00700   0.02000
N3        0.06700   0.10000   0.06500   0.04000   0.01900   0.01900
C4        0.07300   0.09300   0.05900   0.03100   0.02100   0.01000
C5        0.06100   0.09100   0.06000   0.03200   0.00400  -0.00200
C6        0.09000   0.15900   0.15200   0.09000  -0.02000  -0.00900
C8        0.19500   0.16900   0.06700   0.08500   0.02600   0.07400
C10       0.26500   0.21800   0.08800   0.15500  -0.00500   0.00400
C14       0.23700   0.19600   0.19600   0.10100  -0.09800  -0.04100
C18       0.25200   0.15400   0.13600   0.11800  -0.00100   0.01900
C22       0.19500   0.26000   0.24300   0.15400  -0.02800  -0.06700
N26       0.06900   0.07200   0.05600   0.04200  -0.00700   0.00300
N27       0.07100   0.07900   0.05400   0.04400  -0.02000  -0.01300
N28       0.10000   0.08700   0.06500   0.06000  -0.01900  -0.00000
C29       0.09300   0.10400   0.05900   0.06200  -0.01000   0.01100
C30       0.09100   0.08800   0.06000   0.05900   0.00200   0.00600
C31       0.15900   0.06900   0.15200   0.06900   0.00900  -0.01100
C33       0.16900   0.19400   0.06700   0.08400  -0.07400  -0.04800
C35       0.21800   0.17300   0.08800   0.06300  -0.00400  -0.00900
C39       0.19600   0.23100   0.19600   0.09500   0.04100  -0.05700
C43       0.15400   0.17000   0.13600   0.03600  -0.01900  -0.02000
C47       0.26000   0.14700   0.24300   0.10600   0.06700   0.03900
N51       0.07200   0.05700   0.05600   0.03000  -0.00300  -0.01000
N52       0.07900   0.06200   0.05400   0.03500   0.01300  -0.00700
N53       0.08700   0.06700   0.06500   0.02700   0.00000  -0.01900
C54       0.10400   0.07300   0.05900   0.04200  -0.01100  -0.02100
C55       0.08800   0.06100   0.06000   0.02900  -0.00600  -0.00400
C56       0.06900   0.09000   0.15200  -0.00000   0.01100   0.02000
C58       0.19400   0.19500   0.06700   0.11000   0.04800  -0.02600
C60       0.17300   0.26500   0.08800   0.11000   0.00900   0.00500
C64       0.23100   0.23700   0.19600   0.13600   0.05700   0.09800
C68       0.17000   0.25200   0.13600   0.13400   0.02000   0.00100
C72       0.14700   0.19500   0.24300   0.04100  -0.03900   0.02800
N76       0.05700   0.06900   0.05600   0.02700  -0.01000  -0.00700
N77       0.06200   0.07100   0.05400   0.02700  -0.00700  -0.02000
N78       0.06700   0.10000   0.06500   0.04000  -0.01900  -0.01900
C79       0.07300   0.09300   0.05900   0.03100  -0.02100  -0.01000
C80       0.06100   0.09100   0.06000   0.03200  -0.00400   0.00200
C81       0.09000   0.15900   0.15200   0.09000   0.02000   0.00900
C83       0.19500   0.16900   0.06700   0.08500  -0.02600  -0.07400
C85       0.26500   0.21800   0.08800   0.15500   0.00500  -0.00400
C89       0.23700   0.19600   0.19600   0.10100   0.09800   0.04100
C93       0.25200   0.15400   0.13600   0.11800   0.00100  -0.01900
C97       0.19500   0.26000   0.24300   0.15400   0.02800   0.06700
N101      0.06900   0.07200   0.05600   0.04200   0.00700  -0.00300
N102      0.07100   0.07900   0.05400   0.04400   0.02000   0.01300
N103      0.10000   0.08700   0.06500   0.06000   0.01900   0.00000
C104      0.09300   0.10400   0.05900   0.06200   0.01000  -0.01100
C105      0.09100   0.08800   0.06000   0.05900  -0.00200  -0.00600
C106      0.15900   0.06900   0.15200   0.06900  -0.00900   0.01100
C108      0.16900   0.19400   0.06700   0.08400   0.07400   0.04800
C110      0.21800   0.17300   0.08800   0.06300   0.00400   0.00900
C114      0.19600   0.23100   0.19600   0.09500  -0.04100   0.05700
C118      0.15400   0.17000   0.13600   0.03600   0.01900   0.02000
C122      0.26000   0.14700   0.24300   0.10600  -0.06700  -0.03900
N126      0.07200   0.05700   0.05600   0.03000   0.00300   0.01000
N127      0.07900   0.06200   0.05400   0.03500  -0.01300   0.00700
N128      0.08700   0.06700   0.06500   0.02700   0.00000   0.01900
C129      0.10400   0.07300   0.05900   0.04200   0.01100   0.02100
C130      0.08800   0.06100   0.06000   0.02900   0.00600   0.00400
C131      0.06900   0.09000   0.15200  -0.00000  -0.01100  -0.02000
C133      0.19400   0.19500   0.06700   0.11000  -0.04800   0.02600
C135      0.17300   0.26500   0.08800   0.11000  -0.00900  -0.00500
C139      0.23100   0.23700   0.19600   0.13600  -0.05700  -0.09800
C143      0.17000   0.25200   0.13600   0.13400  -0.02000  -0.00100
C147      0.14700   0.19500   0.24300   0.04100   0.03900  -0.02800
N151      0.06900   0.05700   0.05600   0.02700  -0.00700  -0.01000
N152      0.07100   0.06200   0.05400   0.02700  -0.02000  -0.00700
N153      0.10000   0.06700   0.06500   0.04000  -0.01900  -0.01900
C154      0.09300   0.07300   0.05900   0.03100  -0.01000  -0.02100
C155      0.09100   0.06100   0.06000   0.03200   0.00200  -0.00400
C156      0.15900   0.09000   0.15200   0.09000   0.00900   0.02000
C158      0.16900   0.19500   0.06700   0.08500  -0.07400  -0.02600
C160      0.21800   0.26500   0.08800   0.15500  -0.00400   0.00500
C164      0.19600   0.23700   0.19600   0.10100   0.04100   0.09800
C168      0.15400   0.25200   0.13600   0.11800  -0.01900   0.00100
C172      0.26000   0.19500   0.24300   0.15400   0.06700   0.02800
N176      0.07200   0.06900   0.05600   0.04200  -0.00300   0.00700
N177      0.07900   0.07100   0.05400   0.04400   0.01300   0.02000
N178      0.08700   0.10000   0.06500   0.06000   0.00000   0.01900
C179      0.10400   0.09300   0.05900   0.06200  -0.01100   0.01000
C180      0.08800   0.09100   0.06000   0.05900  -0.00600  -0.00200
C181      0.06900   0.15900   0.15200   0.06900   0.01100  -0.00900
C183      0.19400   0.16900   0.06700   0.08400   0.04800   0.07400
C185      0.17300   0.21800   0.08800   0.06300   0.00900   0.00400
C189      0.23100   0.19600   0.19600   0.09500   0.05700  -0.04100
C193      0.17000   0.15400   0.13600   0.03600   0.02000   0.01900
C197      0.14700   0.26000   0.24300   0.10600  -0.03900  -0.06700
N201      0.05700   0.07200   0.05600   0.03000   0.01000   0.00300
N202      0.06200   0.07900   0.05400   0.03500   0.00700  -0.01300
N203      0.06700   0.08700   0.06500   0.02700   0.01900   0.00000
C204      0.07300   0.10400   0.05900   0.04200   0.02100   0.01100
C205      0.06100   0.08800   0.06000   0.02900   0.00400   0.00600
C206      0.09000   0.06900   0.15200   0.00000  -0.02000  -0.01100
C208      0.19500   0.19400   0.06700   0.11000   0.02600  -0.04800
C210      0.26500   0.17300   0.08800   0.11000  -0.00500  -0.00900
C214      0.23700   0.23100   0.19600   0.13600  -0.09800  -0.05700
C218      0.25200   0.17000   0.13600   0.13400  -0.00100  -0.02000
C222      0.19500   0.14700   0.24300   0.04100  -0.02800   0.03900
N226      0.06900   0.05700   0.05600   0.02700   0.00700   0.01000
N227      0.07100   0.06200   0.05400   0.02700   0.02000   0.00700
N228      0.10000   0.06700   0.06500   0.04000   0.01900   0.01900
C229      0.09300   0.07300   0.05900   0.03100   0.01000   0.02100
C230      0.09100   0.06100   0.06000   0.03200  -0.00200   0.00400
C231      0.15900   0.09000   0.15200   0.09000  -0.00900  -0.02000
C233      0.16900   0.19500   0.06700   0.08500   0.07400   0.02600
C235      0.21800   0.26500   0.08800   0.15500   0.00400  -0.00500
C239      0.19600   0.23700   0.19600   0.10100  -0.04100  -0.09800
C243      0.15400   0.25200   0.13600   0.11800   0.01900  -0.00100
C247      0.26000   0.19500   0.24300   0.15400  -0.06700  -0.02800
N251      0.07200   0.06900   0.05600   0.04200   0.00300  -0.00700
N252      0.07900   0.07100   0.05400   0.04400  -0.01300  -0.02000
N253      0.08700   0.10000   0.06500   0.06000   0.00000  -0.01900
C254      0.10400   0.09300   0.05900   0.06200   0.01100  -0.01000
C255      0.08800   0.09100   0.06000   0.05900   0.00600   0.00200
C256      0.06900   0.15900   0.15200   0.06900  -0.01100   0.00900
C258      0.19400   0.16900   0.06700   0.08400  -0.04800  -0.07400
C260      0.17300   0.21800   0.08800   0.06300  -0.00900  -0.00400
C264      0.23100   0.19600   0.19600   0.09500  -0.05700   0.04100
C268      0.17000   0.15400   0.13600   0.03600  -0.02000  -0.01900
C272      0.14700   0.26000   0.24300   0.10600   0.03900   0.06700
N276      0.05700   0.07200   0.05600   0.03000  -0.01000  -0.00300
N277      0.06200   0.07900   0.05400   0.03500  -0.00700   0.01300
N278      0.06700   0.08700   0.06500   0.02700  -0.01900  -0.00000
C279      0.07300   0.10400   0.05900   0.04200  -0.02100  -0.01100
C280      0.06100   0.08800   0.06000   0.02900  -0.00400  -0.00600
C281      0.09000   0.06900   0.15200   0.00000   0.02000   0.01100
C283      0.19500   0.19400   0.06700   0.11000  -0.02600   0.04800
C285      0.26500   0.17300   0.08800   0.11000   0.00500   0.00900
C289      0.23700   0.23100   0.19600   0.13600   0.09800   0.05700
C293      0.25200   0.17000   0.13600   0.13400   0.00100   0.02000
C297      0.19500   0.14700   0.24300   0.04100   0.02800  -0.03900
Cu301     0.06560   0.06560   0.04850   0.03280   0.00000   0.00000
Cu302     0.06560   0.06560   0.04850   0.03280   0.00000   0.00000
Cu303     0.06560   0.06560   0.04850   0.03280   0.00000   0.00000
Cu304     0.06560   0.06560   0.04850   0.03280   0.00000   0.00000
Cu305     0.06640   0.06640   0.05430   0.03290   0.01470   0.01470
Cu306     0.06640   0.06700   0.05430   0.03350  -0.01470  -0.00000
Cu307     0.06700   0.06640   0.05430   0.03350   0.00000  -0.01470
Cu308     0.06640   0.06640   0.05430   0.03290  -0.01470  -0.01470
Cu309     0.06640   0.06700   0.05430   0.03350   0.01470   0.00000
Cu310     0.06700   0.06640   0.05430   0.03350   0.00000   0.01470
Cu311     0.06860   0.12020   0.07480   0.03430   0.03220   0.01610
Cu312     0.12020   0.12020   0.07480   0.08590  -0.01610   0.01610
Cu313     0.12020   0.06860   0.07480   0.03430  -0.01610  -0.03220
Cu314     0.06860   0.12020   0.07480   0.03430  -0.03220  -0.01610
Cu315     0.12020   0.12020   0.07480   0.08590   0.01610  -0.01610
Cu316     0.12020   0.06860   0.07480   0.03430   0.01610   0.03220
loop_
_geom_bond_atom_site_label_1
_geom_bond_atom_site_label_2
_geom_bond_distance
_geom_bond_site_symmetry_2
_ccdc_geom_bond_type
N1     Cu305   1.851   .     S
N1     N2      1.394   .     S
N1     C5      1.329   .     S
N2     Cu301   1.955   .     S
N2     C4      1.304   .     S
N3     Cu311   1.870   1_655 S
N3     C4      1.384   .     S
N3     C5      1.348   .     S
C4     C8      1.508   .     S
C5     C6      1.423   .     S
C6     H7      0.980   .     S
C6     C14     1.519   1_655 S
C6     C22     1.521   .     S
C8     H9      0.981   .     S
C8     C10     1.519   .     S
C8     C18     1.518   .     S
C10    H11     0.960   .     S
C10    H12     0.960   .     S
C10    H13     0.960   .     S
C14    C6      1.519   1_455 S
C14    H15     0.959   .     S
C14    H16     0.961   .     S
C14    H17     0.960   1_455 S
H17    C14     0.960   1_655 S
C18    H19     0.960   .     S
C18    H20     0.959   .     S
C18    H21     0.961   .     S
C22    H23     0.959   .     S
C22    H24     0.960   .     S
C22    H25     0.960   .     S
N26    Cu306   1.851   .     S
N26    N27     1.394   .     S
N26    C30     1.329   .     S
N27    Cu301   1.955   .     S
N27    C29     1.304   .     S
N28    Cu312   1.870   .     S
N28    C29     1.384   .     S
N28    C30     1.348   .     S
C29    C33     1.508   .     S
C30    C31     1.423   .     S
C31    H32     0.980   .     S
C31    C39     1.519   .     S
C31    C47     1.521   .     S
C33    H34     0.981   .     S
C33    C35     1.519   .     S
C33    C43     1.518   .     S
C35    H36     0.960   .     S
C35    H37     0.960   .     S
C35    H38     0.960   .     S
C39    H40     0.959   .     S
C39    H41     0.961   .     S
C39    H42     0.960   .     S
C43    H44     0.960   .     S
C43    H45     0.959   .     S
C43    H46     0.961   .     S
C47    H48     0.959   .     S
C47    H49     0.960   .     S
C47    H50     0.960   .     S
N51    Cu307   1.851   .     S
N51    N52     1.394   .     S
N51    C55     1.329   .     S
N52    Cu301   1.955   .     S
N52    C54     1.304   .     S
N53    Cu313   1.870   .     S
N53    C54     1.384   .     S
N53    C55     1.348   .     S
C54    C58     1.508   .     S
C55    C56     1.423   .     S
C56    H57     0.980   .     S
C56    C64     1.519   1_545 S
C56    C72     1.521   .     S
C58    H59     0.981   .     S
C58    C60     1.519   .     S
C58    C68     1.518   .     S
C60    H61     0.960   .     S
C60    H62     0.960   .     S
C60    H63     0.960   .     S
C64    C56     1.519   1_565 S
C64    H65     0.959   .     S
C64    H66     0.961   .     S
C64    H67     0.960   1_565 S
H67    C64     0.960   1_545 S
C68    H69     0.960   .     S
C68    H70     0.959   .     S
C68    H71     0.961   .     S
C72    H73     0.959   .     S
C72    H74     0.960   .     S
C72    H75     0.960   .     S
N76    Cu308   1.851   .     S
N76    N77     1.394   .     S
N76    C80     1.329   .     S
N77    Cu302   1.955   .     S
N77    C79     1.304   .     S
N78    Cu314   1.870   .     S
N78    C79     1.384   .     S
N78    C80     1.348   .     S
C79    C83     1.508   1_554 S
C80    C81     1.423   .     S
C81    H82     0.980   .     S
C81    C89     1.519   1_455 S
C81    C97     1.521   .     S
C83    C79     1.508   1_556 S
C83    H84     0.981   .     S
C83    C85     1.519   .     S
C83    C93     1.518   .     S
C85    H86     0.960   .     S
C85    H87     0.960   .     S
C85    H88     0.960   .     S
C89    C81     1.519   1_655 S
C89    H90     0.959   .     S
C89    H91     0.961   .     S
C89    H92     0.960   1_655 S
H92    C89     0.960   1_455 S
C93    H94     0.960   1_556 S
C93    H95     0.959   .     S
C93    H96     0.961   .     S
H94    C93     0.960   1_554 S
C97    H98     0.959   .     S
C97    H99     0.960   .     S
C97    H100    0.960   .     S
N101   Cu309   1.851   .     S
N101   N102    1.394   .     S
N101   C105    1.329   .     S
N102   Cu302   1.955   .     S
N102   C104    1.304   .     S
N103   Cu315   1.870   .     S
N103   C104    1.384   .     S
N103   C105    1.348   .     S
C104   C108    1.508   1_554 S
C105   C106    1.423   .     S
C106   H107    0.980   .     S
C106   C114    1.519   .     S
C106   C122    1.521   .     S
C108   C104    1.508   1_556 S
C108   H109    0.981   .     S
C108   C110    1.519   .     S
C108   C118    1.518   .     S
C110   H111    0.960   .     S
C110   H112    0.960   .     S
C110   H113    0.960   .     S
C114   H115    0.959   .     S
C114   H116    0.961   .     S
C114   H117    0.960   .     S
C118   H119    0.960   1_556 S
C118   H120    0.959   .     S
C118   H121    0.961   .     S
H119   C118    0.960   1_554 S
C122   H123    0.959   .     S
C122   H124    0.960   .     S
C122   H125    0.960   .     S
N126   Cu310   1.851   .     S
N126   N127    1.394   .     S
N126   C130    1.329   .     S
N127   Cu302   1.955   .     S
N127   C129    1.304   .     S
N128   Cu316   1.870   1_565 S
N128   C129    1.384   .     S
N128   C130    1.348   .     S
C129   C133    1.508   1_554 S
C130   C131    1.423   .     S
C131   H132    0.980   .     S
C131   C139    1.519   1_565 S
C131   C147    1.521   .     S
C133   C129    1.508   1_556 S
C133   H134    0.981   .     S
C133   C135    1.519   .     S
C133   C143    1.518   .     S
C135   H136    0.960   .     S
C135   H137    0.960   .     S
C135   H138    0.960   .     S
C139   C131    1.519   1_545 S
C139   H140    0.959   .     S
C139   H141    0.961   .     S
C139   H142    0.960   1_545 S
H142   C139    0.960   1_565 S
C143   H144    0.960   1_556 S
C143   H145    0.959   .     S
C143   H146    0.961   .     S
H144   C143    0.960   1_554 S
C147   H148    0.959   .     S
C147   H149    0.960   .     S
C147   H150    0.960   .     S
N151   Cu308   1.851   .     S
N151   N152    1.394   .     S
N151   C155    1.329   .     S
N152   Cu303   1.955   .     S
N152   C154    1.304   .     S
N153   Cu313   1.870   1_565 S
N153   C154    1.384   .     S
N153   C155    1.348   .     S
C154   C158    1.508   .     S
C155   C156    1.423   .     S
C156   H157    0.980   .     S
C156   C164    1.519   1_565 S
C156   C172    1.521   .     S
C158   H159    0.981   .     S
C158   C160    1.519   .     S
C158   C168    1.518   .     S
C160   H161    0.960   .     S
C160   H162    0.960   .     S
C160   H163    0.960   .     S
C164   C156    1.519   1_545 S
C164   H165    0.959   .     S
C164   H166    0.961   .     S
C164   H167    0.960   1_545 S
H167   C164    0.960   1_565 S
C168   H169    0.960   .     S
C168   H170    0.959   .     S
C168   H171    0.961   .     S
C172   H173    0.959   .     S
C172   H174    0.960   .     S
C172   H175    0.960   .     S
N176   Cu310   1.851   .     S
N176   N177    1.394   .     S
N176   C180    1.329   .     S
N177   Cu303   1.955   .     S
N177   C179    1.304   .     S
N178   Cu312   1.870   .     S
N178   C179    1.384   .     S
N178   C180    1.348   .     S
C179   C183    1.508   .     S
C180   C181    1.423   .     S
C181   H182    0.980   .     S
C181   C189    1.519   .     S
C181   C197    1.521   .     S
C183   H184    0.981   .     S
C183   C185    1.519   .     S
C183   C193    1.518   .     S
C185   H186    0.960   .     S
C185   H187    0.960   .     S
C185   H188    0.960   .     S
C189   H190    0.959   .     S
C189   H191    0.961   .     S
C189   H192    0.960   .     S
C193   H194    0.960   .     S
C193   H195    0.959   .     S
C193   H196    0.961   .     S
C197   H198    0.959   .     S
C197   H199    0.960   .     S
C197   H200    0.960   .     S
N201   Cu309   1.851   .     S
N201   N202    1.394   .     S
N201   C205    1.329   .     S
N202   Cu303   1.955   .     S
N202   C204    1.304   .     S
N203   Cu311   1.870   .     S
N203   C204    1.384   .     S
N203   C205    1.348   .     S
C204   C208    1.508   .     S
C205   C206    1.423   .     S
C206   H207    0.980   .     S
C206   C214    1.519   1_455 S
C206   C222    1.521   .     S
C208   H209    0.981   .     S
C208   C210    1.519   .     S
C208   C218    1.518   .     S
C210   H211    0.960   .     S
C210   H212    0.960   .     S
C210   H213    0.960   .     S
C214   C206    1.519   1_655 S
C214   H215    0.959   .     S
C214   H216    0.961   .     S
C214   H217    0.960   1_655 S
H217   C214    0.960   1_455 S
C218   H219    0.960   .     S
C218   H220    0.959   .     S
C218   H221    0.961   .     S
C222   H223    0.959   .     S
C222   H224    0.960   .     S
C222   H225    0.960   .     S
N226   Cu305   1.851   .     S
N226   N227    1.394   .     S
N226   C230    1.329   .     S
N227   Cu304   1.955   .     S
N227   C229    1.304   .     S
N228   Cu316   1.870   1_556 S
N228   C229    1.384   .     S
N228   C230    1.348   .     S
C229   C233    1.508   1_556 S
C230   C231    1.423   .     S
C231   H232    0.980   .     S
C231   C239    1.519   1_545 S
C231   C247    1.521   .     S
C233   C229    1.508   1_554 S
C233   H234    0.981   .     S
C233   C235    1.519   .     S
C233   C243    1.518   .     S
C235   H236    0.960   .     S
C235   H237    0.960   .     S
C235   H238    0.960   .     S
C239   C231    1.519   1_565 S
C239   H240    0.959   .     S
C239   H241    0.961   .     S
C239   H242    0.960   1_565 S
H242   C239    0.960   1_545 S
C243   H244    0.960   1_554 S
C243   H245    0.959   .     S
C243   H246    0.961   .     S
H244   C243    0.960   1_556 S
C247   H248    0.959   .     S
C247   H249    0.960   .     S
C247   H250    0.960   .     S
N251   Cu307   1.851   .     S
N251   N252    1.394   .     S
N251   C255    1.329   .     S
N252   Cu304   1.955   .     S
N252   C254    1.304   .     S
N253   Cu315   1.870   1_556 S
N253   C254    1.384   .     S
N253   C255    1.348   .     S
C254   C258    1.508   1_556 S
C255   C256    1.423   .     S
C256   H257    0.980   .     S
C256   C264    1.519   .     S
C256   C272    1.521   .     S
C258   C254    1.508   1_554 S
C258   H259    0.981   .     S
C258   C260    1.519   .     S
C258   C268    1.518   .     S
C260   H261    0.960   .     S
C260   H262    0.960   .     S
C260   H263    0.960   .     S
C264   H265    0.959   .     S
C264   H266    0.961   .     S
C264   H267    0.960   .     S
C268   H269    0.960   1_554 S
C268   H270    0.959   .     S
C268   H271    0.961   .     S
H269   C268    0.960   1_556 S
C272   H273    0.959   .     S
C272   H274    0.960   .     S
C272   H275    0.960   .     S
N276   Cu306   1.851   .     S
N276   N277    1.394   .     S
N276   C280    1.329   .     S
N277   Cu304   1.955   .     S
N277   C279    1.304   .     S
N278   Cu314   1.870   1_656 S
N278   C279    1.384   .     S
N278   C280    1.348   .     S
C279   C283    1.508   1_556 S
C280   C281    1.423   .     S
C281   H282    0.980   .     S
C281   C289    1.519   1_655 S
C281   C297    1.521   .     S
C283   C279    1.508   1_554 S
C283   H284    0.981   .     S
C283   C285    1.519   .     S
C283   C293    1.518   .     S
C285   H286    0.960   .     S
C285   H287    0.960   .     S
C285   H288    0.960   .     S
C289   C281    1.519   1_455 S
C289   H290    0.959   .     S
C289   H291    0.961   .     S
C289   H292    0.960   1_455 S
H292   C289    0.960   1_655 S
C293   H294    0.960   1_554 S
C293   H295    0.959   .     S
C293   H296    0.961   .     S
H294   C293    0.960   1_556 S
C297   H298    0.959   .     S
C297   H299    0.960   .     S
C297   H300    0.960   .     S
Cu311  N3      1.870   1_455 S
Cu313  N153    1.870   1_545 S
Cu314  N278    1.870   1_454 S
Cu315  N253    1.870   1_554 S
Cu316  N128    1.870   1_545 S
Cu316  N228    1.870   1_554 S
