data_CENNES_FSR
_audit_creation_date              2024-06-11
_audit_creation_method            'Materials Studio'
_symmetry_space_group_name_H-M    'P1'
_symmetry_Int_Tables_number       1
_symmetry_cell_setting            triclinic
loop_
_symmetry_equiv_pos_as_xyz
  x,y,z
_cell_length_a                    10.9944
_cell_length_b                    22.1650
_cell_length_c                    18.7012
_cell_angle_alpha                 90.0000
_cell_angle_beta                  90.2510
_cell_angle_gamma                 90.0000
loop_
_atom_site_label
_atom_site_type_symbol
_atom_site_fract_x
_atom_site_fract_y
_atom_site_fract_z
_atom_site_U_iso_or_equiv
_atom_site_adp_type
_atom_site_occupancy
Zn1    Zn    0.92822   0.23866   0.90372   0.00000  Uiso   1.00
Zn2    Zn    0.75102   0.22367   0.04983   0.00000  Uiso   1.00
S3     S     0.11630   0.20053   0.26321   0.00000  Uiso   1.00
O4     O     0.77280   0.23206   0.94940   0.00000  Uiso   1.00
H5     H     0.70220   0.23300   0.91990   0.00000  Uiso   1.00
O6     O     0.57680   0.23590   0.06150   0.00000  Uiso   1.00
O7     O     0.58050   0.21970   0.17960   0.00000  Uiso   1.00
O8     O     0.01970   0.21173   0.98740   0.00000  Uiso   1.00
O9     O     0.19030   0.22260   0.92640   0.00000  Uiso   1.00
O10    O     0.13220   0.13722   0.27940   0.00000  Uiso   1.00
O11    O     0.99090   0.21660   0.24730   0.00000  Uiso   1.00
O12    O     0.17320   0.23980   0.31590   0.00000  Uiso   1.00
N13    N     0.83660   0.29010   0.10070   0.00000  Uiso   1.00
N14    N     0.85800   0.36740   0.17340   0.00000  Uiso   1.00
N15    N     0.72340   0.55030   0.36660   0.00000  Uiso   1.00
N16    N     0.70940   0.63900   0.41990   0.00000  Uiso   1.00
N17    N     0.93260   0.17920   0.82530   0.00000  Uiso   1.00
N18    N     0.86330   0.10740   0.75550   0.00000  Uiso   1.00
N19    N     0.57130   0.91550   0.66130   0.00000  Uiso   1.00
N20    N     0.53400   0.82300   0.62430   0.00000  Uiso   1.00
C21    C     0.87670   0.41230   0.29210   0.00000  Uiso   1.00
C22    C     0.95670   0.36570   0.31700   0.00000  Uiso   1.00
H23    H     0.97700   0.33310   0.28620   0.00000  Uiso   1.00
C24    C     0.00300   0.36760   0.38310   0.00000  Uiso   1.00
H25    H     0.05680   0.33670   0.39850   0.00000  Uiso   1.00
C26    C     0.97360   0.41470   0.43040   0.00000  Uiso   1.00
H27    H     0.00720   0.41470   0.47730   0.00000  Uiso   1.00
C28    C     0.89820   0.46000   0.41030   0.00000  Uiso   1.00
H29    H     0.88090   0.49170   0.44290   0.00000  Uiso   1.00
C30    C     0.84400   0.46070   0.34050   0.00000  Uiso   1.00
C31    C     0.76110   0.50440   0.31730   0.00000  Uiso   1.00
C32    C     0.70790   0.50480   0.24950   0.00000  Uiso   1.00
C33    C     0.61950   0.54760   0.22620   0.00000  Uiso   1.00
H34    H     0.59440   0.57850   0.25810   0.00000  Uiso   1.00
C35    C     0.57060   0.54530   0.15990   0.00000  Uiso   1.00
H36    H     0.51100   0.57400   0.14590   0.00000  Uiso   1.00
C37    C     0.60800   0.50000   0.11140   0.00000  Uiso   1.00
H38    H     0.57320   0.49900   0.06480   0.00000  Uiso   1.00
C39    C     0.69200   0.45820   0.12960   0.00000  Uiso   1.00
H40    H     0.71590   0.42870   0.09570   0.00000  Uiso   1.00
C41    C     0.82680   0.41400   0.22380   0.00000  Uiso   1.00
C42    C     0.74500   0.45800   0.19940   0.00000  Uiso   1.00
C43    C     0.79460   0.31760   0.15800   0.00000  Uiso   1.00
H44    H     0.72720   0.30370   0.18510   0.00000  Uiso   1.00
C45    C     0.93430   0.32540   0.07880   0.00000  Uiso   1.00
H46    H     0.98480   0.31690   0.03900   0.00000  Uiso   1.00
C47    C     0.94660   0.37300   0.12190   0.00000  Uiso   1.00
H48    H     0.00470   0.40450   0.11790   0.00000  Uiso   1.00
C49    C     0.63310   0.54540   0.41690   0.00000  Uiso   1.00
H50    H     0.58430   0.51150   0.42720   0.00000  Uiso   1.00
C51    C     0.78150   0.06130   0.73020   0.00000  Uiso   1.00
C52    C     0.75210   0.05830   0.65900   0.00000  Uiso   1.00
C53    C     0.78860   0.10310   0.60760   0.00000  Uiso   1.00
H54    H     0.83600   0.13650   0.62310   0.00000  Uiso   1.00
C55    C     0.75720   0.09870   0.53840   0.00000  Uiso   1.00
H56    H     0.78350   0.12840   0.50530   0.00000  Uiso   1.00
C57    C     0.68390   0.04900   0.51450   0.00000  Uiso   1.00
H58    H     0.66100   0.04660   0.46550   0.00000  Uiso   1.00
C59    C     0.64670   0.00520   0.56050   0.00000  Uiso   1.00
H60    H     0.59960   0.97230   0.54340   0.00000  Uiso   1.00
C61    C     0.67820   0.00870   0.63460   0.00000  Uiso   1.00
C62    C     0.63950   0.96660   0.68530   0.00000  Uiso   1.00
C63    C     0.66580   0.97060   0.75770   0.00000  Uiso   1.00
C64    C     0.74360   0.01890   0.78130   0.00000  Uiso   1.00
C65    C     0.77970   0.02010   0.85470   0.00000  Uiso   1.00
H66    H     0.83220   0.05110   0.87150   0.00000  Uiso   1.00
C67    C     0.73940   0.97750   0.90040   0.00000  Uiso   1.00
H68    H     0.76400   0.97930   0.94910   0.00000  Uiso   1.00
C69    C     0.66210   0.93030   0.87790   0.00000  Uiso   1.00
H70    H     0.63510   0.90070   0.91110   0.00000  Uiso   1.00
C71    C     0.62740   0.92770   0.80910   0.00000  Uiso   1.00
H72    H     0.57500   0.89600   0.79430   0.00000  Uiso   1.00
C73    C     0.44700   0.90600   0.66600   0.00000  Uiso   1.00
H74    H     0.38820   0.93460   0.68040   0.00000  Uiso   1.00
C75    C     0.98770   0.10500   0.75160   0.00000  Uiso   1.00
H76    H     0.03500   0.07750   0.72440   0.00000  Uiso   1.00
C77    C     0.02950   0.14970   0.79430   0.00000  Uiso   1.00
H78    H     0.11280   0.15930   0.80180   0.00000  Uiso   1.00
C79    C     0.83490   0.15240   0.79980   0.00000  Uiso   1.00
H80    H     0.75410   0.16380   0.81150   0.00000  Uiso   1.00
C81    C     0.38810   0.22530   0.12090   0.00000  Uiso   1.00
C82    C     0.32330   0.22050   0.18410   0.00000  Uiso   1.00
H83    H     0.36460   0.22240   0.22870   0.00000  Uiso   1.00
C84    C     0.19780   0.21280   0.18210   0.00000  Uiso   1.00
C85    C     0.13780   0.21070   0.11720   0.00000  Uiso   1.00
H86    H     0.05220   0.20500   0.11600   0.00000  Uiso   1.00
C87    C     0.20130   0.21680   0.05380   0.00000  Uiso   1.00
C88    C     0.32620   0.22400   0.05600   0.00000  Uiso   1.00
H89    H     0.37020   0.22820   0.01270   0.00000  Uiso   1.00
C90    C     0.52560   0.22740   0.12380   0.00000  Uiso   1.00
C91    C     0.13510   0.21660   0.98340   0.00000  Uiso   1.00
C92    C     0.42460   0.85000   0.64330   0.00000  Uiso   1.00
H93    H     0.34740   0.83160   0.64090   0.00000  Uiso   1.00
C94    C     0.61780   0.86310   0.63540   0.00000  Uiso   1.00
H95    H     0.70180   0.85660   0.62910   0.00000  Uiso   1.00
C96    C     0.76540   0.60750   0.36890   0.00000  Uiso   1.00
H97    H     0.82620   0.62280   0.33830   0.00000  Uiso   1.00
C98    C     0.62540   0.60010   0.44920   0.00000  Uiso   1.00
H99    H     0.57230   0.61050   0.48680   0.00000  Uiso   1.00
Zn100  Zn    0.57178   0.73866   0.59628   0.00000  Uiso   1.00
Zn101  Zn    0.74898   0.72367   0.45017   0.00000  Uiso   1.00
S102   S     0.38370   0.70053   0.23679   0.00000  Uiso   1.00
O103   O     0.72720   0.73206   0.55060   0.00000  Uiso   1.00
H104   H     0.79780   0.73300   0.58010   0.00000  Uiso   1.00
O105   O     0.92320   0.73590   0.43850   0.00000  Uiso   1.00
O106   O     0.91950   0.71970   0.32040   0.00000  Uiso   1.00
O107   O     0.48030   0.71173   0.51260   0.00000  Uiso   1.00
O108   O     0.30970   0.72260   0.57360   0.00000  Uiso   1.00
O109   O     0.36780   0.63722   0.22060   0.00000  Uiso   1.00
O110   O     0.50910   0.71660   0.25270   0.00000  Uiso   1.00
O111   O     0.32680   0.73980   0.18410   0.00000  Uiso   1.00
N112   N     0.66340   0.79010   0.39930   0.00000  Uiso   1.00
N113   N     0.64200   0.86740   0.32660   0.00000  Uiso   1.00
N114   N     0.77660   0.05030   0.13340   0.00000  Uiso   1.00
N115   N     0.79060   0.13900   0.08010   0.00000  Uiso   1.00
N116   N     0.56740   0.67920   0.67470   0.00000  Uiso   1.00
N117   N     0.63670   0.60740   0.74450   0.00000  Uiso   1.00
N118   N     0.92870   0.41550   0.83870   0.00000  Uiso   1.00
N119   N     0.96600   0.32300   0.87570   0.00000  Uiso   1.00
C120   C     0.62330   0.91230   0.20790   0.00000  Uiso   1.00
C121   C     0.54330   0.86570   0.18300   0.00000  Uiso   1.00
H122   H     0.52300   0.83310   0.21380   0.00000  Uiso   1.00
C123   C     0.49700   0.86760   0.11690   0.00000  Uiso   1.00
H124   H     0.44320   0.83670   0.10150   0.00000  Uiso   1.00
C125   C     0.52640   0.91470   0.06960   0.00000  Uiso   1.00
H126   H     0.49280   0.91470   0.02270   0.00000  Uiso   1.00
C127   C     0.60180   0.96000   0.08970   0.00000  Uiso   1.00
H128   H     0.61910   0.99170   0.05710   0.00000  Uiso   1.00
C129   C     0.65600   0.96070   0.15950   0.00000  Uiso   1.00
C130   C     0.73890   0.00440   0.18270   0.00000  Uiso   1.00
C131   C     0.79210   0.00480   0.25050   0.00000  Uiso   1.00
C132   C     0.88050   0.04760   0.27380   0.00000  Uiso   1.00
H133   H     0.90560   0.07850   0.24190   0.00000  Uiso   1.00
C134   C     0.92940   0.04530   0.34010   0.00000  Uiso   1.00
H135   H     0.98900   0.07400   0.35410   0.00000  Uiso   1.00
C136   C     0.89200   0.00000   0.38860   0.00000  Uiso   1.00
H137   H     0.92680   0.99900   0.43520   0.00000  Uiso   1.00
C138   C     0.80800   0.95820   0.37040   0.00000  Uiso   1.00
H139   H     0.78410   0.92870   0.40430   0.00000  Uiso   1.00
C140   C     0.67320   0.91400   0.27620   0.00000  Uiso   1.00
C141   C     0.75500   0.95800   0.30060   0.00000  Uiso   1.00
C142   C     0.70540   0.81760   0.34200   0.00000  Uiso   1.00
H143   H     0.77280   0.80370   0.31490   0.00000  Uiso   1.00
C144   C     0.56570   0.82540   0.42120   0.00000  Uiso   1.00
H145   H     0.51520   0.81690   0.46100   0.00000  Uiso   1.00
C146   C     0.55340   0.87300   0.37810   0.00000  Uiso   1.00
H147   H     0.49530   0.90450   0.38210   0.00000  Uiso   1.00
C148   C     0.86690   0.04540   0.08310   0.00000  Uiso   1.00
H149   H     0.91570   0.01150   0.07280   0.00000  Uiso   1.00
C150   C     0.71850   0.56130   0.76980   0.00000  Uiso   1.00
C151   C     0.74790   0.55830   0.84100   0.00000  Uiso   1.00
C152   C     0.71140   0.60310   0.89240   0.00000  Uiso   1.00
H153   H     0.66400   0.63650   0.87690   0.00000  Uiso   1.00
C154   C     0.74280   0.59870   0.96160   0.00000  Uiso   1.00
H155   H     0.71650   0.62840   0.99470   0.00000  Uiso   1.00
C156   C     0.81610   0.54900   0.98550   0.00000  Uiso   1.00
H157   H     0.83900   0.54660   0.03450   0.00000  Uiso   1.00
C158   C     0.85330   0.50520   0.93950   0.00000  Uiso   1.00
H159   H     0.90040   0.47230   0.95660   0.00000  Uiso   1.00
C160   C     0.82180   0.50870   0.86540   0.00000  Uiso   1.00
C161   C     0.86050   0.46660   0.81470   0.00000  Uiso   1.00
C162   C     0.83420   0.47060   0.74230   0.00000  Uiso   1.00
C163   C     0.75640   0.51890   0.71870   0.00000  Uiso   1.00
C164   C     0.72030   0.52010   0.64530   0.00000  Uiso   1.00
H165   H     0.66780   0.55110   0.62850   0.00000  Uiso   1.00
C166   C     0.76060   0.47750   0.59960   0.00000  Uiso   1.00
H167   H     0.73600   0.47930   0.55090   0.00000  Uiso   1.00
C168   C     0.83790   0.43030   0.62210   0.00000  Uiso   1.00
H169   H     0.86490   0.40070   0.58890   0.00000  Uiso   1.00
C170   C     0.87260   0.42770   0.69090   0.00000  Uiso   1.00
H171   H     0.92500   0.39600   0.70570   0.00000  Uiso   1.00
C172   C     0.05300   0.40600   0.83400   0.00000  Uiso   1.00
H173   H     0.11180   0.43460   0.81960   0.00000  Uiso   1.00
C174   C     0.51230   0.60500   0.74840   0.00000  Uiso   1.00
H175   H     0.46500   0.57750   0.77560   0.00000  Uiso   1.00
C176   C     0.47050   0.64970   0.70570   0.00000  Uiso   1.00
H177   H     0.38720   0.65930   0.69820   0.00000  Uiso   1.00
C178   C     0.66510   0.65240   0.70020   0.00000  Uiso   1.00
H179   H     0.74590   0.66380   0.68850   0.00000  Uiso   1.00
C180   C     0.11190   0.72530   0.37910   0.00000  Uiso   1.00
C181   C     0.17670   0.72050   0.31590   0.00000  Uiso   1.00
H182   H     0.13540   0.72240   0.27130   0.00000  Uiso   1.00
C183   C     0.30220   0.71280   0.31790   0.00000  Uiso   1.00
C184   C     0.36220   0.71070   0.38280   0.00000  Uiso   1.00
H185   H     0.44780   0.70500   0.38400   0.00000  Uiso   1.00
C186   C     0.29870   0.71680   0.44620   0.00000  Uiso   1.00
C187   C     0.17380   0.72400   0.44400   0.00000  Uiso   1.00
H188   H     0.12980   0.72820   0.48730   0.00000  Uiso   1.00
C189   C     0.97440   0.72740   0.37620   0.00000  Uiso   1.00
C190   C     0.36490   0.71660   0.51660   0.00000  Uiso   1.00
C191   C     0.07540   0.35000   0.85670   0.00000  Uiso   1.00
H192   H     0.15260   0.33160   0.85910   0.00000  Uiso   1.00
C193   C     0.88220   0.36310   0.86460   0.00000  Uiso   1.00
H194   H     0.79820   0.35660   0.87090   0.00000  Uiso   1.00
C195   C     0.73460   0.10750   0.13110   0.00000  Uiso   1.00
H196   H     0.67380   0.12280   0.16170   0.00000  Uiso   1.00
C197   C     0.87460   0.10010   0.05080   0.00000  Uiso   1.00
H198   H     0.92770   0.11050   0.01320   0.00000  Uiso   1.00
Zn199  Zn    0.07178   0.76134   0.09628   0.00000  Uiso   1.00
Zn200  Zn    0.24898   0.77633   0.95017   0.00000  Uiso   1.00
S201   S     0.88370   0.79947   0.73679   0.00000  Uiso   1.00
O202   O     0.22720   0.76794   0.05060   0.00000  Uiso   1.00
H203   H     0.29780   0.76700   0.08010   0.00000  Uiso   1.00
O204   O     0.42320   0.76410   0.93850   0.00000  Uiso   1.00
O205   O     0.41950   0.78030   0.82040   0.00000  Uiso   1.00
O206   O     0.98030   0.78827   0.01260   0.00000  Uiso   1.00
O207   O     0.80970   0.77740   0.07360   0.00000  Uiso   1.00
O208   O     0.86780   0.86278   0.72060   0.00000  Uiso   1.00
O209   O     0.00910   0.78340   0.75270   0.00000  Uiso   1.00
O210   O     0.82680   0.76020   0.68410   0.00000  Uiso   1.00
N211   N     0.16340   0.70990   0.89930   0.00000  Uiso   1.00
N212   N     0.14200   0.63260   0.82660   0.00000  Uiso   1.00
N213   N     0.27660   0.44970   0.63340   0.00000  Uiso   1.00
N214   N     0.29060   0.36100   0.58010   0.00000  Uiso   1.00
N215   N     0.06740   0.82080   0.17470   0.00000  Uiso   1.00
N216   N     0.13670   0.89260   0.24450   0.00000  Uiso   1.00
N217   N     0.42870   0.08450   0.33870   0.00000  Uiso   1.00
N218   N     0.46600   0.17700   0.37570   0.00000  Uiso   1.00
C219   C     0.12330   0.58770   0.70790   0.00000  Uiso   1.00
C220   C     0.04330   0.63430   0.68300   0.00000  Uiso   1.00
H221   H     0.02300   0.66690   0.71380   0.00000  Uiso   1.00
C222   C     0.99700   0.63240   0.61690   0.00000  Uiso   1.00
H223   H     0.94320   0.66330   0.60150   0.00000  Uiso   1.00
C224   C     0.02640   0.58530   0.56960   0.00000  Uiso   1.00
H225   H     0.99280   0.58530   0.52270   0.00000  Uiso   1.00
C226   C     0.10180   0.54000   0.58970   0.00000  Uiso   1.00
H227   H     0.11910   0.50830   0.55710   0.00000  Uiso   1.00
C228   C     0.15600   0.53930   0.65950   0.00000  Uiso   1.00
C229   C     0.23890   0.49560   0.68270   0.00000  Uiso   1.00
C230   C     0.29210   0.49520   0.75050   0.00000  Uiso   1.00
C231   C     0.38050   0.45240   0.77380   0.00000  Uiso   1.00
H232   H     0.40560   0.42150   0.74190   0.00000  Uiso   1.00
C233   C     0.42940   0.45470   0.84010   0.00000  Uiso   1.00
H234   H     0.48900   0.42600   0.85410   0.00000  Uiso   1.00
C235   C     0.39200   0.50000   0.88860   0.00000  Uiso   1.00
H236   H     0.42680   0.50100   0.93520   0.00000  Uiso   1.00
C237   C     0.30800   0.54180   0.87040   0.00000  Uiso   1.00
H238   H     0.28410   0.57130   0.90430   0.00000  Uiso   1.00
C239   C     0.17320   0.58600   0.77620   0.00000  Uiso   1.00
C240   C     0.25500   0.54200   0.80060   0.00000  Uiso   1.00
C241   C     0.20540   0.68240   0.84200   0.00000  Uiso   1.00
H242   H     0.27280   0.69630   0.81490   0.00000  Uiso   1.00
C243   C     0.06570   0.67460   0.92120   0.00000  Uiso   1.00
H244   H     0.01520   0.68310   0.96100   0.00000  Uiso   1.00
C245   C     0.05340   0.62700   0.87810   0.00000  Uiso   1.00
H246   H     0.99530   0.59550   0.88210   0.00000  Uiso   1.00
C247   C     0.36690   0.45460   0.58310   0.00000  Uiso   1.00
H248   H     0.41570   0.48850   0.57280   0.00000  Uiso   1.00
C249   C     0.21850   0.93870   0.26980   0.00000  Uiso   1.00
C250   C     0.24790   0.94170   0.34100   0.00000  Uiso   1.00
C251   C     0.21140   0.89690   0.39240   0.00000  Uiso   1.00
H252   H     0.16400   0.86350   0.37690   0.00000  Uiso   1.00
C253   C     0.24280   0.90130   0.46160   0.00000  Uiso   1.00
H254   H     0.21650   0.87160   0.49470   0.00000  Uiso   1.00
C255   C     0.31610   0.95100   0.48550   0.00000  Uiso   1.00
H256   H     0.33900   0.95340   0.53450   0.00000  Uiso   1.00
C257   C     0.35330   0.99480   0.43950   0.00000  Uiso   1.00
H258   H     0.40040   0.02770   0.45660   0.00000  Uiso   1.00
C259   C     0.32180   0.99130   0.36540   0.00000  Uiso   1.00
C260   C     0.36050   0.03340   0.31470   0.00000  Uiso   1.00
C261   C     0.33420   0.02940   0.24230   0.00000  Uiso   1.00
C262   C     0.25640   0.98110   0.21870   0.00000  Uiso   1.00
C263   C     0.22030   0.97990   0.14530   0.00000  Uiso   1.00
H264   H     0.16780   0.94890   0.12850   0.00000  Uiso   1.00
C265   C     0.26060   0.02250   0.09960   0.00000  Uiso   1.00
H266   H     0.23600   0.02070   0.05090   0.00000  Uiso   1.00
C267   C     0.33790   0.06970   0.12210   0.00000  Uiso   1.00
H268   H     0.36490   0.09930   0.08890   0.00000  Uiso   1.00
C269   C     0.37260   0.07230   0.19090   0.00000  Uiso   1.00
H270   H     0.42500   0.10400   0.20570   0.00000  Uiso   1.00
C271   C     0.55300   0.09400   0.33400   0.00000  Uiso   1.00
H272   H     0.61180   0.06540   0.31960   0.00000  Uiso   1.00
C273   C     0.01230   0.89500   0.24840   0.00000  Uiso   1.00
H274   H     0.96500   0.92250   0.27560   0.00000  Uiso   1.00
C275   C     0.97050   0.85030   0.20570   0.00000  Uiso   1.00
H276   H     0.88720   0.84070   0.19820   0.00000  Uiso   1.00
C277   C     0.16510   0.84760   0.20020   0.00000  Uiso   1.00
H278   H     0.24590   0.83620   0.18850   0.00000  Uiso   1.00
C279   C     0.61190   0.77470   0.87910   0.00000  Uiso   1.00
C280   C     0.67670   0.77950   0.81590   0.00000  Uiso   1.00
H281   H     0.63540   0.77760   0.77130   0.00000  Uiso   1.00
C282   C     0.80220   0.78720   0.81790   0.00000  Uiso   1.00
C283   C     0.86220   0.78930   0.88280   0.00000  Uiso   1.00
H284   H     0.94780   0.79500   0.88400   0.00000  Uiso   1.00
C285   C     0.79870   0.78320   0.94620   0.00000  Uiso   1.00
C286   C     0.67380   0.77600   0.94400   0.00000  Uiso   1.00
H287   H     0.62980   0.77180   0.98730   0.00000  Uiso   1.00
C288   C     0.47440   0.77260   0.87620   0.00000  Uiso   1.00
C289   C     0.86490   0.78340   0.01660   0.00000  Uiso   1.00
C290   C     0.57540   0.15000   0.35670   0.00000  Uiso   1.00
H291   H     0.65260   0.16840   0.35910   0.00000  Uiso   1.00
C292   C     0.38220   0.13690   0.36460   0.00000  Uiso   1.00
H293   H     0.29820   0.14340   0.37090   0.00000  Uiso   1.00
C294   C     0.23460   0.39250   0.63110   0.00000  Uiso   1.00
H295   H     0.17380   0.37720   0.66170   0.00000  Uiso   1.00
C296   C     0.37460   0.39990   0.55080   0.00000  Uiso   1.00
H297   H     0.42770   0.38950   0.51320   0.00000  Uiso   1.00
Zn298  Zn    0.42822   0.26134   0.40372   0.00000  Uiso   1.00
Zn299  Zn    0.25102   0.27633   0.54983   0.00000  Uiso   1.00
S300   S     0.61630   0.29947   0.76321   0.00000  Uiso   1.00
O301   O     0.27280   0.26794   0.44940   0.00000  Uiso   1.00
H302   H     0.20220   0.26700   0.41990   0.00000  Uiso   1.00
O303   O     0.07680   0.26410   0.56150   0.00000  Uiso   1.00
O304   O     0.08050   0.28030   0.67960   0.00000  Uiso   1.00
O305   O     0.51970   0.28827   0.48740   0.00000  Uiso   1.00
O306   O     0.69030   0.27740   0.42640   0.00000  Uiso   1.00
O307   O     0.63220   0.36278   0.77940   0.00000  Uiso   1.00
O308   O     0.49090   0.28340   0.74730   0.00000  Uiso   1.00
O309   O     0.67320   0.26020   0.81590   0.00000  Uiso   1.00
N310   N     0.33660   0.20990   0.60070   0.00000  Uiso   1.00
N311   N     0.35800   0.13260   0.67340   0.00000  Uiso   1.00
N312   N     0.22340   0.94970   0.86660   0.00000  Uiso   1.00
N313   N     0.20940   0.86100   0.91990   0.00000  Uiso   1.00
N314   N     0.43260   0.32080   0.32530   0.00000  Uiso   1.00
N315   N     0.36330   0.39260   0.25550   0.00000  Uiso   1.00
N316   N     0.07130   0.58450   0.16130   0.00000  Uiso   1.00
N317   N     0.03400   0.67700   0.12430   0.00000  Uiso   1.00
C318   C     0.37670   0.08770   0.79210   0.00000  Uiso   1.00
C319   C     0.45670   0.13430   0.81700   0.00000  Uiso   1.00
H320   H     0.47700   0.16690   0.78620   0.00000  Uiso   1.00
C321   C     0.50300   0.13240   0.88310   0.00000  Uiso   1.00
H322   H     0.55680   0.16330   0.89850   0.00000  Uiso   1.00
C323   C     0.47360   0.08530   0.93040   0.00000  Uiso   1.00
H324   H     0.50720   0.08530   0.97730   0.00000  Uiso   1.00
C325   C     0.39820   0.04000   0.91030   0.00000  Uiso   1.00
H326   H     0.38090   0.00830   0.94290   0.00000  Uiso   1.00
C327   C     0.34400   0.03930   0.84050   0.00000  Uiso   1.00
C328   C     0.26110   0.99560   0.81730   0.00000  Uiso   1.00
C329   C     0.20790   0.99520   0.74950   0.00000  Uiso   1.00
C330   C     0.11950   0.95240   0.72620   0.00000  Uiso   1.00
H331   H     0.09440   0.92150   0.75810   0.00000  Uiso   1.00
C332   C     0.07060   0.95470   0.65990   0.00000  Uiso   1.00
H333   H     0.01100   0.92600   0.64590   0.00000  Uiso   1.00
C334   C     0.10800   0.00000   0.61140   0.00000  Uiso   1.00
H335   H     0.07320   0.00100   0.56480   0.00000  Uiso   1.00
C336   C     0.19200   0.04180   0.62960   0.00000  Uiso   1.00
H337   H     0.21590   0.07130   0.59570   0.00000  Uiso   1.00
C338   C     0.32680   0.08600   0.72380   0.00000  Uiso   1.00
C339   C     0.24500   0.04200   0.69940   0.00000  Uiso   1.00
C340   C     0.29460   0.18240   0.65800   0.00000  Uiso   1.00
H341   H     0.22720   0.19630   0.68510   0.00000  Uiso   1.00
C342   C     0.43430   0.17460   0.57880   0.00000  Uiso   1.00
H343   H     0.48480   0.18310   0.53900   0.00000  Uiso   1.00
C344   C     0.44660   0.12700   0.62190   0.00000  Uiso   1.00
H345   H     0.50470   0.09550   0.61790   0.00000  Uiso   1.00
C346   C     0.13310   0.95460   0.91690   0.00000  Uiso   1.00
H347   H     0.08430   0.98850   0.92720   0.00000  Uiso   1.00
C348   C     0.28150   0.43870   0.23020   0.00000  Uiso   1.00
C349   C     0.25210   0.44170   0.15900   0.00000  Uiso   1.00
C350   C     0.28860   0.39690   0.10760   0.00000  Uiso   1.00
H351   H     0.33600   0.36350   0.12310   0.00000  Uiso   1.00
C352   C     0.25720   0.40130   0.03840   0.00000  Uiso   1.00
H353   H     0.28350   0.37160   0.00530   0.00000  Uiso   1.00
C354   C     0.18390   0.45100   0.01450   0.00000  Uiso   1.00
H355   H     0.16100   0.45340   0.96550   0.00000  Uiso   1.00
C356   C     0.14670   0.49480   0.06050   0.00000  Uiso   1.00
H357   H     0.09960   0.52770   0.04340   0.00000  Uiso   1.00
C358   C     0.17820   0.49130   0.13460   0.00000  Uiso   1.00
C359   C     0.13950   0.53340   0.18530   0.00000  Uiso   1.00
C360   C     0.16580   0.52940   0.25770   0.00000  Uiso   1.00
C361   C     0.24360   0.48110   0.28130   0.00000  Uiso   1.00
C362   C     0.27970   0.47990   0.35470   0.00000  Uiso   1.00
H363   H     0.33220   0.44890   0.37150   0.00000  Uiso   1.00
C364   C     0.23940   0.52250   0.40040   0.00000  Uiso   1.00
H365   H     0.26400   0.52070   0.44910   0.00000  Uiso   1.00
C366   C     0.16210   0.56970   0.37790   0.00000  Uiso   1.00
H367   H     0.13510   0.59930   0.41110   0.00000  Uiso   1.00
C368   C     0.12740   0.57230   0.30910   0.00000  Uiso   1.00
H369   H     0.07500   0.60400   0.29430   0.00000  Uiso   1.00
C370   C     0.94700   0.59400   0.16600   0.00000  Uiso   1.00
H371   H     0.88820   0.56540   0.18040   0.00000  Uiso   1.00
C372   C     0.48770   0.39500   0.25160   0.00000  Uiso   1.00
H373   H     0.53500   0.42250   0.22440   0.00000  Uiso   1.00
C374   C     0.52950   0.35030   0.29430   0.00000  Uiso   1.00
H375   H     0.61280   0.34070   0.30180   0.00000  Uiso   1.00
C376   C     0.33490   0.34760   0.29980   0.00000  Uiso   1.00
H377   H     0.25410   0.33620   0.31150   0.00000  Uiso   1.00
C378   C     0.88810   0.27470   0.62090   0.00000  Uiso   1.00
C379   C     0.82330   0.27950   0.68410   0.00000  Uiso   1.00
H380   H     0.86460   0.27760   0.72870   0.00000  Uiso   1.00
C381   C     0.69780   0.28720   0.68210   0.00000  Uiso   1.00
C382   C     0.63780   0.28930   0.61720   0.00000  Uiso   1.00
H383   H     0.55220   0.29500   0.61600   0.00000  Uiso   1.00
C384   C     0.70130   0.28320   0.55380   0.00000  Uiso   1.00
C385   C     0.82620   0.27600   0.55600   0.00000  Uiso   1.00
H386   H     0.87020   0.27180   0.51270   0.00000  Uiso   1.00
C387   C     0.02560   0.27260   0.62380   0.00000  Uiso   1.00
C388   C     0.63510   0.28340   0.48340   0.00000  Uiso   1.00
C389   C     0.92460   0.65000   0.14330   0.00000  Uiso   1.00
H390   H     0.84740   0.66840   0.14090   0.00000  Uiso   1.00
C391   C     0.11780   0.63690   0.13540   0.00000  Uiso   1.00
H392   H     0.20180   0.64340   0.12910   0.00000  Uiso   1.00
C393   C     0.26540   0.89250   0.86890   0.00000  Uiso   1.00
H394   H     0.32620   0.87720   0.83830   0.00000  Uiso   1.00
C395   C     0.12540   0.89990   0.94920   0.00000  Uiso   1.00
H396   H     0.07230   0.88950   0.98680   0.00000  Uiso   1.00
loop_
_geom_bond_atom_site_label_1
_geom_bond_atom_site_label_2
_geom_bond_distance
_geom_bond_site_symmetry_2
_ccdc_geom_bond_type
Zn1    O4      1.919   .     S
Zn1    N17     1.972   .     S
Zn1    O8      1.950   1_655 S
Zn1    N119    1.986   .     S
Zn2    O4      1.904   1_554 S
Zn2    O6      1.948   .     S
Zn2    N13     1.988   .     S
Zn2    N115    2.007   .     S
S3     O10     1.446   .     S
S3     O11     1.453   1_455 S
S3     O12     1.454   .     S
S3     C84     1.786   .     S
O4     Zn2     1.904   1_556 S
O4     H5      0.951   .     S
O6     C90     1.310   .     S
O7     C90     1.215   .     S
O8     C91     1.276   .     S
O8     Zn1     1.950   1_455 S
O9     C91     1.236   .     S
O11    S3      1.453   1_655 S
N13    C43     1.318   .     S
N13    C45     1.392   .     S
N14    C41     1.441   .     S
N14    C47     1.378   .     S
N14    C43     1.336   .     S
N15    C31     1.435   .     S
N15    C49     1.375   .     S
N15    C96     1.350   .     S
N16    C96     1.335   .     S
N16    C98     1.379   .     S
N16    Zn101   2.007   .     S
N17    C77     1.380   1_655 S
N17    C79     1.315   .     S
N18    C51     1.440   .     S
N18    C75     1.371   .     S
N18    C79     1.335   .     S
N19    C62     1.430   .     S
N19    C73     1.386   .     S
N19    C94     1.359   .     S
N20    C92     1.391   .     S
N20    Zn100   1.986   .     S
N20    C94     1.296   .     S
C21    C22     1.433   .     S
C21    C30     1.450   .     S
C21    C41     1.388   .     S
C22    H23     0.951   .     S
C22    C24     1.335   1_655 S
C24    C22     1.335   1_455 S
C24    H25     0.949   .     S
C24    C26     1.407   1_455 S
C26    C24     1.407   1_655 S
C26    H27     0.950   1_655 S
C26    C28     1.354   .     S
H27    C26     0.950   1_455 S
C28    H29     0.950   .     S
C28    C30     1.433   .     S
C30    C31     1.398   .     S
C31    C32     1.394   .     S
C32    C33     1.425   .     S
C32    C42     1.457   .     S
C33    H34     0.950   .     S
C33    C35     1.350   .     S
C35    H36     0.949   .     S
C35    C37     1.415   .     S
C37    H38     0.950   .     S
C37    C39     1.351   .     S
C39    H40     0.949   .     S
C39    C42     1.427   .     S
C41    C42     1.402   .     S
C43    H44     0.951   .     S
C45    H46     0.949   .     S
C45    C47     1.334   .     S
C47    H48     0.949   1_655 S
H48    C47     0.949   1_455 S
C49    H50     0.944   .     S
C49    C98     1.357   .     S
C51    C52     1.370   .     S
C51    C64     1.405   .     S
C52    C53     1.440   .     S
C52    C61     1.440   .     S
C53    H54     0.950   .     S
C53    C55     1.341   .     S
C55    H56     0.950   .     S
C55    C57     1.435   .     S
C57    H58     0.951   .     S
C57    C59     1.361   .     S
C59    H60     0.949   1_545 S
C59    C61     1.429   .     S
H60    C59     0.949   1_565 S
C61    C62     1.398   1_545 S
C62    C61     1.398   1_565 S
C62    C63     1.386   .     S
C63    C71     1.418   .     S
C63    C64     1.438   1_565 S
C64    C65     1.427   .     S
C64    C63     1.438   1_545 S
C65    H66     0.950   .     S
C65    C67     1.350   1_545 S
C67    C65     1.350   1_565 S
C67    H68     0.950   .     S
C67    C69     1.411   .     S
C69    H70     0.952   .     S
C69    C71     1.342   .     S
C71    H72     0.949   .     S
C73    H74     0.945   .     S
C73    C92     1.334   .     S
C75    H76     0.950   1_655 S
C75    C77     1.352   1_655 S
H76    C75     0.950   1_455 S
C77    N17     1.380   1_455 S
C77    H78     0.950   .     S
C77    C75     1.352   1_455 S
C79    H80     0.950   .     S
C81    C82     1.387   .     S
C81    C88     1.389   .     S
C81    C90     1.513   .     S
C82    H83     0.949   .     S
C82    C84     1.391   .     S
C84    C85     1.380   .     S
C85    H86     0.950   .     S
C85    C87     1.385   .     S
C87    C91     1.502   1_554 S
C87    C88     1.383   .     S
C88    H89     0.950   .     S
C91    C87     1.502   1_556 S
C92    H93     0.943   .     S
C94    H95     0.943   .     S
C96    H97     0.945   .     S
C98    H99     0.944   .     S
Zn100  O103    1.919   .     S
Zn100  N116    1.972   .     S
Zn100  O107    1.950   .     S
Zn101  O103    1.904   .     S
Zn101  O105    1.948   .     S
Zn101  N112    1.988   .     S
S102   O109    1.446   .     S
S102   O110    1.453   .     S
S102   O111    1.454   .     S
S102   C183    1.786   .     S
O103   H104    0.951   .     S
O105   C189    1.310   .     S
O106   C189    1.215   .     S
O107   C190    1.276   .     S
O108   C190    1.236   .     S
N112   C142    1.318   .     S
N112   C144    1.392   .     S
N113   C140    1.441   .     S
N113   C146    1.378   .     S
N113   C142    1.336   .     S
N114   C130    1.435   .     S
N114   C148    1.375   .     S
N114   C195    1.350   .     S
N115   C195    1.335   .     S
N115   C197    1.379   .     S
N116   C176    1.380   .     S
N116   C178    1.315   .     S
N117   C150    1.440   .     S
N117   C174    1.371   .     S
N117   C178    1.335   .     S
N118   C161    1.430   .     S
N118   C172    1.386   1_655 S
N118   C193    1.359   .     S
N119   C191    1.391   1_655 S
N119   C193    1.296   .     S
C120   C121    1.433   .     S
C120   C129    1.450   .     S
C120   C140    1.388   .     S
C121   H122    0.951   .     S
C121   C123    1.335   .     S
C123   H124    0.949   .     S
C123   C125    1.407   .     S
C125   H126    0.950   .     S
C125   C127    1.354   .     S
C127   H128    0.950   .     S
C127   C129    1.433   .     S
C129   C130    1.398   1_565 S
C130   C129    1.398   1_545 S
C130   C131    1.394   .     S
C131   C132    1.425   .     S
C131   C141    1.457   1_545 S
C132   H133    0.950   .     S
C132   C134    1.350   .     S
C134   H135    0.949   .     S
C134   C136    1.415   .     S
C136   H137    0.950   1_545 S
C136   C138    1.351   1_545 S
H137   C136    0.950   1_565 S
C138   C136    1.351   1_565 S
C138   H139    0.949   .     S
C138   C141    1.427   .     S
C140   C141    1.402   .     S
C141   C131    1.457   1_565 S
C142   H143    0.951   .     S
C144   H145    0.949   .     S
C144   C146    1.334   .     S
C146   H147    0.949   .     S
C148   H149    0.944   .     S
C148   C197    1.357   .     S
C150   C151    1.370   .     S
C150   C163    1.405   .     S
C151   C152    1.440   .     S
C151   C160    1.440   .     S
C152   H153    0.950   .     S
C152   C154    1.341   .     S
C154   H155    0.950   .     S
C154   C156    1.435   .     S
C156   H157    0.951   1_556 S
C156   C158    1.361   .     S
H157   C156    0.951   1_554 S
C158   H159    0.949   .     S
C158   C160    1.429   .     S
C160   C161    1.398   .     S
C161   C162    1.386   .     S
C162   C170    1.418   .     S
C162   C163    1.438   .     S
C163   C164    1.427   .     S
C164   H165    0.950   .     S
C164   C166    1.350   .     S
C166   H167    0.950   .     S
C166   C168    1.411   .     S
C168   H169    0.952   .     S
C168   C170    1.342   .     S
C170   H171    0.949   .     S
C172   N118    1.386   1_455 S
C172   H173    0.945   .     S
C172   C191    1.334   .     S
C174   H175    0.950   .     S
C174   C176    1.352   .     S
C176   H177    0.950   .     S
C178   H179    0.950   .     S
C180   C181    1.387   .     S
C180   C187    1.389   .     S
C180   C189    1.513   1_455 S
C181   H182    0.949   .     S
C181   C183    1.391   .     S
C183   C184    1.380   .     S
C184   H185    0.950   .     S
C184   C186    1.385   .     S
C186   C190    1.502   .     S
C186   C187    1.383   .     S
C187   H188    0.950   .     S
C189   C180    1.513   1_655 S
C191   N119    1.391   1_455 S
C191   H192    0.943   .     S
C193   H194    0.943   .     S
C195   H196    0.945   .     S
C197   H198    0.944   .     S
Zn199  O202    1.919   .     S
Zn199  N215    1.972   .     S
Zn199  O206    1.950   1_455 S
Zn199  N317    1.986   .     S
Zn200  O202    1.904   1_556 S
Zn200  O204    1.948   .     S
Zn200  N211    1.988   .     S
Zn200  N313    2.007   .     S
S201   O208    1.446   .     S
S201   O209    1.453   1_655 S
S201   O210    1.454   .     S
S201   C282    1.786   .     S
O202   Zn200   1.904   1_554 S
O202   H203    0.951   .     S
O204   C288    1.310   .     S
O205   C288    1.215   .     S
O206   C289    1.276   .     S
O206   Zn199   1.950   1_655 S
O207   C289    1.236   .     S
O209   S201    1.453   1_455 S
N211   C241    1.318   .     S
N211   C243    1.392   .     S
N212   C239    1.441   .     S
N212   C245    1.378   .     S
N212   C241    1.336   .     S
N213   C229    1.435   .     S
N213   C247    1.375   .     S
N213   C294    1.350   .     S
N214   C294    1.335   .     S
N214   C296    1.379   .     S
N214   Zn299   2.007   .     S
N215   C275    1.380   1_455 S
N215   C277    1.315   .     S
N216   C249    1.440   .     S
N216   C273    1.371   .     S
N216   C277    1.335   .     S
N217   C260    1.430   .     S
N217   C271    1.386   .     S
N217   C292    1.359   .     S
N218   C290    1.391   .     S
N218   Zn298   1.986   .     S
N218   C292    1.296   .     S
C219   C220    1.433   .     S
C219   C228    1.450   .     S
C219   C239    1.388   .     S
C220   H221    0.951   .     S
C220   C222    1.335   1_455 S
C222   C220    1.335   1_655 S
C222   H223    0.949   .     S
C222   C224    1.407   1_655 S
C224   C222    1.407   1_455 S
C224   H225    0.950   1_455 S
C224   C226    1.354   .     S
H225   C224    0.950   1_655 S
C226   H227    0.950   .     S
C226   C228    1.433   .     S
C228   C229    1.398   .     S
C229   C230    1.394   .     S
C230   C231    1.425   .     S
C230   C240    1.457   .     S
C231   H232    0.950   .     S
C231   C233    1.350   .     S
C233   H234    0.949   .     S
C233   C235    1.415   .     S
C235   H236    0.950   .     S
C235   C237    1.351   .     S
C237   H238    0.949   .     S
C237   C240    1.427   .     S
C239   C240    1.402   .     S
C241   H242    0.951   .     S
C243   H244    0.949   .     S
C243   C245    1.334   .     S
C245   H246    0.949   1_455 S
H246   C245    0.949   1_655 S
C247   H248    0.944   .     S
C247   C296    1.357   .     S
C249   C250    1.370   .     S
C249   C262    1.405   .     S
C250   C251    1.440   .     S
C250   C259    1.440   .     S
C251   H252    0.950   .     S
C251   C253    1.341   .     S
C253   H254    0.950   .     S
C253   C255    1.435   .     S
C255   H256    0.951   .     S
C255   C257    1.361   .     S
C257   H258    0.949   1_565 S
C257   C259    1.429   .     S
H258   C257    0.949   1_545 S
C259   C260    1.398   1_565 S
C260   C259    1.398   1_545 S
C260   C261    1.386   .     S
C261   C269    1.418   .     S
C261   C262    1.438   1_545 S
C262   C263    1.427   .     S
C262   C261    1.438   1_565 S
C263   H264    0.950   .     S
C263   C265    1.350   1_565 S
C265   C263    1.350   1_545 S
C265   H266    0.950   .     S
C265   C267    1.411   .     S
C267   H268    0.952   .     S
C267   C269    1.342   .     S
C269   H270    0.949   .     S
C271   H272    0.945   .     S
C271   C290    1.334   .     S
C273   H274    0.950   1_455 S
C273   C275    1.352   1_455 S
H274   C273    0.950   1_655 S
C275   N215    1.380   1_655 S
C275   H276    0.950   .     S
C275   C273    1.352   1_655 S
C277   H278    0.950   .     S
C279   C280    1.387   .     S
C279   C286    1.389   .     S
C279   C288    1.513   .     S
C280   H281    0.949   .     S
C280   C282    1.391   .     S
C282   C283    1.380   .     S
C283   H284    0.950   .     S
C283   C285    1.385   .     S
C285   C289    1.502   1_556 S
C285   C286    1.383   .     S
C286   H287    0.950   .     S
C289   C285    1.502   1_554 S
C290   H291    0.943   .     S
C292   H293    0.943   .     S
C294   H295    0.945   .     S
C296   H297    0.944   .     S
Zn298  O301    1.919   .     S
Zn298  N314    1.972   .     S
Zn298  O305    1.950   .     S
Zn299  O301    1.904   .     S
Zn299  O303    1.948   .     S
Zn299  N310    1.988   .     S
S300   O307    1.446   .     S
S300   O308    1.453   .     S
S300   O309    1.454   .     S
S300   C381    1.786   .     S
O301   H302    0.951   .     S
O303   C387    1.310   .     S
O304   C387    1.215   .     S
O305   C388    1.276   .     S
O306   C388    1.236   .     S
N310   C340    1.318   .     S
N310   C342    1.392   .     S
N311   C338    1.441   .     S
N311   C344    1.378   .     S
N311   C340    1.336   .     S
N312   C328    1.435   .     S
N312   C346    1.375   .     S
N312   C393    1.350   .     S
N313   C393    1.335   .     S
N313   C395    1.379   .     S
N314   C374    1.380   .     S
N314   C376    1.315   .     S
N315   C348    1.440   .     S
N315   C372    1.371   .     S
N315   C376    1.335   .     S
N316   C359    1.430   .     S
N316   C370    1.386   1_455 S
N316   C391    1.359   .     S
N317   C389    1.391   1_455 S
N317   C391    1.296   .     S
C318   C319    1.433   .     S
C318   C327    1.450   .     S
C318   C338    1.388   .     S
C319   H320    0.951   .     S
C319   C321    1.335   .     S
C321   H322    0.949   .     S
C321   C323    1.407   .     S
C323   H324    0.950   .     S
C323   C325    1.354   .     S
C325   H326    0.950   .     S
C325   C327    1.433   .     S
C327   C328    1.398   1_545 S
C328   C327    1.398   1_565 S
C328   C329    1.394   .     S
C329   C330    1.425   .     S
C329   C339    1.457   1_565 S
C330   H331    0.950   .     S
C330   C332    1.350   .     S
C332   H333    0.949   .     S
C332   C334    1.415   1_565 S
C334   C332    1.415   1_545 S
C334   H335    0.950   .     S
C334   C336    1.351   .     S
C336   H337    0.949   .     S
C336   C339    1.427   .     S
C338   C339    1.402   .     S
C339   C329    1.457   1_545 S
C340   H341    0.951   .     S
C342   H343    0.949   .     S
C342   C344    1.334   .     S
C344   H345    0.949   .     S
C346   H347    0.944   .     S
C346   C395    1.357   .     S
C348   C349    1.370   .     S
C348   C361    1.405   .     S
C349   C350    1.440   .     S
C349   C358    1.440   .     S
C350   H351    0.950   .     S
C350   C352    1.341   .     S
C352   H353    0.950   .     S
C352   C354    1.435   .     S
C354   H355    0.951   1_554 S
C354   C356    1.361   .     S
H355   C354    0.951   1_556 S
C356   H357    0.949   .     S
C356   C358    1.429   .     S
C358   C359    1.398   .     S
C359   C360    1.386   .     S
C360   C368    1.418   .     S
C360   C361    1.438   .     S
C361   C362    1.427   .     S
C362   H363    0.950   .     S
C362   C364    1.350   .     S
C364   H365    0.950   .     S
C364   C366    1.411   .     S
C366   H367    0.952   .     S
C366   C368    1.342   .     S
C368   H369    0.949   .     S
C370   N316    1.386   1_655 S
C370   H371    0.945   .     S
C370   C389    1.334   .     S
C372   H373    0.950   .     S
C372   C374    1.352   .     S
C374   H375    0.950   .     S
C376   H377    0.950   .     S
C378   C379    1.387   .     S
C378   C385    1.389   .     S
C378   C387    1.513   1_655 S
C379   H380    0.949   .     S
C379   C381    1.391   .     S
C381   C382    1.380   .     S
C382   H383    0.950   .     S
C382   C384    1.385   .     S
C384   C388    1.502   .     S
C384   C385    1.383   .     S
C385   H386    0.950   .     S
C387   C378    1.513   1_455 S
C389   N317    1.391   1_655 S
C389   H390    0.943   .     S
C391   H392    0.943   .     S
C393   H394    0.945   .     S
C395   H396    0.944   .     S
