data_image0
_chemical_formula_structural       O2C4OHO2C4OH2O2C4OHO2C4OHO2C4OHO2C4O3C4OHO2C4OHC3OHO2C4OHO2C4OHO2C4OHO2CO2C4OHO2C4OHO2C4OHO2C4OHO2C4OHO2C4OHNCSNCSNCSNCSNCSNCSNCSNCSNCSNCSNCSNCSNCSNCSNCSNCSNCSNCSMg18O2C4OHO2C4OH2O2C4OHO2C4OHO2C4OHO2C4O3C4OHO2C4OHC3OHO2C4OHO2C4OHO2C4OHO2CO2C4OHO2C4OHO2C4OHO2C4OHO2C4OHO2C4OHNCSNCSNCSNCSNCSNCSNCSNCSNCSNCSNCSNCSNCSNCSNCSNCSNCSNCSMg18
_chemical_formula_sum              "O108 C180 H36 N36 S36 Mg36"
_cell_length_a       25.9075
_cell_length_b       25.9075
_cell_length_c       13.8332
_cell_angle_alpha    90
_cell_angle_beta     90
_cell_angle_gamma    120

_space_group_name_H-M_alt    "P 1"
_space_group_IT_number       1

loop_
  _space_group_symop_operation_xyz
  'x, y, z'

loop_
  _atom_site_type_symbol
  _atom_site_label
  _atom_site_symmetry_multiplicity
  _atom_site_fract_x
  _atom_site_fract_y
  _atom_site_fract_z
  _atom_site_occupancy
  O   O1        1.0  0.02910  0.41948  0.41883  1.0000
  O   O2        1.0  0.99031  0.36106  0.09561  1.0000
  C   C1        1.0  0.01382  0.45718  0.46124  1.0000
  C   C2        1.0  0.98976  0.40710  0.12839  1.0000
  C   C3        1.0  0.01480  0.50228  0.40473  1.0000
  C   C4        1.0  0.99800  0.45483  0.06008  1.0000
  O   O3        1.0  0.97912  0.41195  0.21654  1.0000
  H   H1        1.0  0.02522  0.50377  0.32814  1.0000
  O   O4        1.0  0.97105  0.58053  0.08188  1.0000
  O   O5        1.0  0.00974  0.63892  0.40505  1.0000
  C   C5        1.0  0.98633  0.54284  0.03939  1.0000
  C   C6        1.0  0.01036  0.59292  0.37225  1.0000
  C   C7        1.0  0.98533  0.49772  0.09589  1.0000
  C   C8        1.0  0.00214  0.54519  0.44054  1.0000
  O   O6        1.0  0.02108  0.58814  0.28410  1.0000
  H   H2        1.0  0.97490  0.49623  0.17247  1.0000
  H   H3        1.0  0.64139  0.83013  0.33922  1.0000
  O   O7        1.0  0.69591  0.75354  0.08576  1.0000
  O   O8        1.0  0.65693  0.69499  0.26237  1.0000
  C   C9        1.0  0.68049  0.79115  0.12810  1.0000
  C   C10       1.0  0.65641  0.74103  0.29519  1.0000
  C   C11       1.0  0.68146  0.83622  0.07154  1.0000
  C   C12       1.0  0.66459  0.78875  0.22692  1.0000
  O   O9        1.0  0.64578  0.74586  0.38336  1.0000
  H   H4        1.0  0.69187  0.83768  0.49496  1.0000
  O   O10       1.0  0.63760  0.91445  0.24849  1.0000
  O   O11       1.0  0.67634  0.97280  0.07152  1.0000
  C   C13       1.0  0.65286  0.87672  0.20610  1.0000
  C   C14       1.0  0.67695  0.92677  0.03890  1.0000
  C   C15       1.0  0.65185  0.83161  0.26266  1.0000
  C   C16       1.0  0.66873  0.87908  0.10729  1.0000
  O   O12       1.0  0.68762  0.92187  0.45077  1.0000
  H   H5        1.0  0.35854  0.17068  0.16145  1.0000
  O   O13       1.0  0.30498  0.24791  0.41524  1.0000
  O   O14       1.0  0.34361  0.30617  0.23831  1.0000
  C   C17       1.0  0.32001  0.21005  0.37272  1.0000
  C   C18       1.0  0.34414  0.26012  0.20553  1.0000
  C   C19       1.0  0.31879  0.16482  0.42922  1.0000
  C   C20       1.0  0.33575  0.21233  0.27385  1.0000
  O   O15       1.0  0.35484  0.25531  0.11739  1.0000
  H   H6        1.0  0.30842  0.16338  0.00581  1.0000
  O   O16       1.0  0.36197  0.08616  0.25202  1.0000
  O   O17       1.0  0.32327  0.02788  0.42899  1.0000
  C   C21       1.0  0.34693  0.12402  0.29454  1.0000
  C   C22       1.0  0.32275  0.07393  0.46174  1.0000
  C   C23       1.0  0.34814  0.16924  0.23804  1.0000
  C   C24       1.0  0.33117  0.12172  0.39341  1.0000
  O   O18       1.0  0.31199  0.07872  0.04985  1.0000
  O   O19       1.0  0.58106  0.61025  0.41903  1.0000
  O   O20       1.0  0.63917  0.63005  0.09591  1.0000
  C   C25       1.0  0.54336  0.55723  0.46140  1.0000
  C   C26       1.0  0.59343  0.58314  0.12857  1.0000
  C   C27       1.0  0.49813  0.51322  0.40493  1.0000
  C   C28       1.0  0.54583  0.54361  0.06017  1.0000
  O   O21       1.0  0.58885  0.56756  0.21666  1.0000
  H   H7        1.0  0.49660  0.52215  0.32832  1.0000
  O   O22       1.0  0.41967  0.39116  0.08195  1.0000
  O   O23       1.0  0.36158  0.37131  0.40487  1.0000
  C   C29       1.0  0.45737  0.44416  0.03947  1.0000
  C   C30       1.0  0.40727  0.41826  0.37223  1.0000
  C   C31       1.0  0.50259  0.48817  0.09592  1.0000
  C   C32       1.0  0.45488  0.45778  0.44068  1.0000
  O   O24       1.0  0.41179  0.43389  0.28417  1.0000
  H   H8        1.0  0.50412  0.47925  0.17253  1.0000
  C   C33       1.0  0.07333  0.75091  0.03893  1.0000
  C   C34       1.0  0.16867  0.82089  0.26255  1.0000
  C   C35       1.0  0.12098  0.79042  0.10731  1.0000
  O   O25       1.0  0.07781  0.76656  0.45088  1.0000
  H   H9        1.0  0.17020  0.81200  0.33916  1.0000
  O   O26       1.0  0.24722  0.94284  0.08545  1.0000
  O   O27       1.0  0.30531  0.96271  0.26238  1.0000
  C   C36       1.0  0.20952  0.88984  0.12790  1.0000
  C   C37       1.0  0.25961  0.91581  0.29509  1.0000
  C   C38       1.0  0.16428  0.84582  0.07147  1.0000
  C   C39       1.0  0.21197  0.87628  0.22671  1.0000
  O   O28       1.0  0.25510  0.90021  0.38317  1.0000
  H   H10       1.0  0.16276  0.85470  0.49485  1.0000
  O   O29       1.0  0.08570  0.72391  0.24863  1.0000
  O   O30       1.0  0.02763  0.70397  0.07159  1.0000
  C   C40       1.0  0.12342  0.77687  0.20614  1.0000
  C   C41       1.0  0.92695  0.24902  0.46148  1.0000
  C   C42       1.0  0.83124  0.17941  0.23802  1.0000
  C   C43       1.0  0.87916  0.20966  0.39315  1.0000
  O   O31       1.0  0.92266  0.23320  0.04944  1.0000
  H   H11       1.0  0.82969  0.18833  0.16142  1.0000
  O   O32       1.0  0.75226  0.05765  0.41525  1.0000
  O   O33       1.0  0.69428  0.03781  0.23825  1.0000
  C   C44       1.0  0.79022  0.11051  0.37265  1.0000
  C   C45       1.0  0.73997  0.08471  0.20553  1.0000
  C   C46       1.0  0.83565  0.15438  0.42901  1.0000
  C   C47       1.0  0.78775  0.12412  0.27387  1.0000
  O   O34       1.0  0.74439  0.10042  0.11751  1.0000
  H   H12       1.0  0.83719  0.14546  0.00561  1.0000
  O   O35       1.0  0.91442  0.27624  0.25187  1.0000
  O   O36       1.0  0.97255  0.29605  0.42889  1.0000
  C   C48       1.0  0.87663  0.22331  0.29440  1.0000
  O   O37       1.0  0.39030  0.97150  0.41872  1.0000
  O   O38       1.0  0.37061  0.01015  0.09560  1.0000
  C   C49       1.0  0.44330  0.98679  0.46116  1.0000
  C   C50       1.0  0.41723  0.01076  0.12832  1.0000
  C   C51       1.0  0.48732  0.98582  0.40448  1.0000
  C   C52       1.0  0.45678  0.00260  0.06009  1.0000
  O   O39       1.0  0.43256  0.02121  0.21663  1.0000
  H   H13       1.0  0.47839  0.97560  0.32783  1.0000
  O   O40       1.0  0.60922  0.02909  0.08170  1.0000
  O   O41       1.0  0.62891  0.99053  0.40477  1.0000
  C   C53       1.0  0.55622  0.01382  0.03925  1.0000
  C   C54       1.0  0.58230  0.98993  0.37202  1.0000
  C   C55       1.0  0.51220  0.01481  0.09592  1.0000
  C   C56       1.0  0.54274  0.99805  0.44029  1.0000
  O   O42       1.0  0.56699  0.97952  0.28371  1.0000
  H   H14       1.0  0.52112  0.02503  0.17257  1.0000
  O   O43       1.0  0.27654  0.36254  0.24852  1.0000
  O   O44       1.0  0.29627  0.32392  0.07170  1.0000
  C   C57       1.0  0.22354  0.34727  0.20609  1.0000
  C   C58       1.0  0.24966  0.32333  0.03896  1.0000
  C   C59       1.0  0.17953  0.34830  0.26271  1.0000
  C   C60       1.0  0.21008  0.33146  0.10716  1.0000
  O   O45       1.0  0.23434  0.31288  0.45066  1.0000
  H   H15       1.0  0.18845  0.35858  0.33936  1.0000
  O   O46       1.0  0.05759  0.30479  0.08551  1.0000
  O   O47       1.0  0.03798  0.34371  0.26208  1.0000
  C   C61       1.0  0.11063  0.32019  0.12793  1.0000
  C   C62       1.0  0.08452  0.34424  0.29496  1.0000
  C   C63       1.0  0.15466  0.31921  0.07128  1.0000
  C   C64       1.0  0.12411  0.33606  0.22684  1.0000
  O   O48       1.0  0.09979  0.35467  0.38329  1.0000
  H   H16       1.0  0.14574  0.30898  0.49462  1.0000
  O   O49       1.0  0.72416  0.63880  0.25222  1.0000
  O   O50       1.0  0.70452  0.67745  0.42916  1.0000
  C   C65       1.0  0.77710  0.65391  0.29469  1.0000
  C   C66       1.0  0.75117  0.67812  0.46183  1.0000
  C   C67       1.0  0.82100  0.65267  0.23805  1.0000
  C   C68       1.0  0.79059  0.66971  0.39365  1.0000
  O   O51       1.0  0.76665  0.68884  0.05007  1.0000
  H   H17       1.0  0.81204  0.64243  0.16140  1.0000
  O   O52       1.0  0.94267  0.69529  0.41538  1.0000
  O   O53       1.0  0.96226  0.65658  0.23844  1.0000
  C   C69       1.0  0.88976  0.68028  0.37288  1.0000
  C   C70       1.0  0.91569  0.65607  0.20572  1.0000
  C   C71       1.0  0.84587  0.68154  0.42953  1.0000
  C   C72       1.0  0.87630  0.66455  0.27391  1.0000
  O   O54       1.0  0.90027  0.64546  0.11744  1.0000
  H   H18       1.0  0.85482  0.69175  0.00617  1.0000
  N   N1        1.0  0.44221  0.31826  0.44764  1.0000
  C   C73       1.0  0.49294  0.34582  0.42410  1.0000
  S   S1        1.0  0.56304  0.38161  0.39108  1.0000
  N   N2        1.0  0.10828  0.65093  0.11446  1.0000
  C   C74       1.0  0.15900  0.67861  0.09096  1.0000
  S   S2        1.0  0.22908  0.71463  0.05788  1.0000
  N   N3        1.0  0.77455  0.98454  0.28077  1.0000
  C   C75       1.0  0.82518  0.01184  0.25673  1.0000
  S   S3        1.0  0.89549  0.04864  0.22495  1.0000
  N   N4        1.0  0.68114  0.12400  0.44686  1.0000
  C   C76       1.0  0.65473  0.14840  0.42351  1.0000
  S   S4        1.0  0.61974  0.18358  0.39066  1.0000
  N   N5        1.0  0.34854  0.45743  0.11364  1.0000
  C   C77       1.0  0.32195  0.48161  0.09013  1.0000
  S   S5        1.0  0.28668  0.51652  0.05727  1.0000
  N   N6        1.0  0.01480  0.79018  0.28051  1.0000
  C   C78       1.0  0.98830  0.81453  0.25740  1.0000
  S   S6        1.0  0.95300  0.84942  0.22469  1.0000
  N   N7        1.0  0.87599  0.55797  0.44738  1.0000
  C   C79       1.0  0.85216  0.50716  0.42409  1.0000
  S   S7        1.0  0.81758  0.43701  0.39126  1.0000
  N   N8        1.0  0.54249  0.89177  0.11446  1.0000
  C   C80       1.0  0.51883  0.84100  0.09096  1.0000
  S   S8        1.0  0.48451  0.77089  0.05795  1.0000
  N   N9        1.0  0.20958  0.22522  0.28169  1.0000
  C   C81       1.0  0.18605  0.17441  0.25854  1.0000
  S   S9        1.0  0.15204  0.10426  0.22571  1.0000
  N   N10       1.0  0.55872  0.68336  0.05326  1.0000
  C   C82       1.0  0.50799  0.65555  0.07665  1.0000
  S   S10       1.0  0.43788  0.61935  0.10956  1.0000
  N   N11       1.0  0.22485  0.01587  0.21985  1.0000
  C   C83       1.0  0.17415  0.98831  0.24352  1.0000
  S   S11       1.0  0.10404  0.95246  0.27650  1.0000
  N   N12       1.0  0.89207  0.34941  0.38612  1.0000
  C   C84       1.0  0.84136  0.32161  0.40965  1.0000
  S   S12       1.0  0.77128  0.28539  0.44272  1.0000
  N   N13       1.0  0.31824  0.87661  0.05357  1.0000
  C   C85       1.0  0.34485  0.85247  0.07719  1.0000
  S   S13       1.0  0.38013  0.81757  0.10999  1.0000
  N   N14       1.0  0.98593  0.21054  0.22181  1.0000
  C   C86       1.0  0.01159  0.18541  0.24526  1.0000
  S   S14       1.0  0.04704  0.15055  0.27736  1.0000
  N   N15       1.0  0.65186  0.54377  0.38674  1.0000
  C   C87       1.0  0.67864  0.51979  0.41030  1.0000
  S   S15       1.0  0.71409  0.48509  0.44321  1.0000
  N   N16       1.0  0.12423  0.44208  0.05309  1.0000
  C   C88       1.0  0.14780  0.49285  0.07654  1.0000
  S   S16       1.0  0.18200  0.56299  0.10939  1.0000
  N   N17       1.0  0.79050  0.77586  0.22098  1.0000
  C   C89       1.0  0.81464  0.82677  0.24373  1.0000
  S   S17       1.0  0.84956  0.89703  0.27603  1.0000
  N   N18       1.0  0.45726  0.10876  0.38601  1.0000
  C   C90       1.0  0.48068  0.15952  0.40955  1.0000
  S   S18       1.0  0.51463  0.22960  0.44266  1.0000
  Mg  Mg1       1.0  0.05188  0.36431  0.49432  1.0000
  Mg  Mg2       1.0  0.35439  0.38546  0.17314  1.0000
  Mg  Mg3       1.0  0.28216  0.30300  0.33986  1.0000
  Mg  Mg4       1.0  0.31247  0.94862  0.49416  1.0000
  Mg  Mg5       1.0  0.71858  0.69835  0.16098  1.0000
  Mg  Mg6       1.0  0.02045  0.71811  0.33988  1.0000
  Mg  Mg7       1.0  0.36466  0.31315  0.00655  1.0000
  Mg  Mg8       1.0  0.97965  0.28184  0.16081  1.0000
  Mg  Mg9       1.0  0.38471  0.03106  0.32752  1.0000
  Mg  Mg10      1.0  0.03067  0.64581  0.17324  1.0000
  Mg  Mg11      1.0  0.64627  0.61596  0.32772  1.0000
  Mg  Mg12      1.0  0.63619  0.68830  0.49442  1.0000
  Mg  Mg13      1.0  0.69717  0.97952  0.34009  1.0000
  Mg  Mg14      1.0  0.94826  0.63564  0.00653  1.0000
  Mg  Mg15      1.0  0.30230  0.02094  0.16081  1.0000
  Mg  Mg16      1.0  0.68708  0.05208  0.00624  1.0000
  Mg  Mg17      1.0  0.61495  0.96961  0.17305  1.0000
  Mg  Mg18      1.0  0.96955  0.35428  0.32732  1.0000
  O   O55       1.0  0.02910  0.41948  0.91883  1.0000
  O   O56       1.0  0.99031  0.36106  0.59561  1.0000
  C   C91       1.0  0.01382  0.45718  0.96124  1.0000
  C   C92       1.0  0.98976  0.40710  0.62839  1.0000
  C   C93       1.0  0.01480  0.50228  0.90473  1.0000
  C   C94       1.0  0.99800  0.45483  0.56009  1.0000
  O   O57       1.0  0.97912  0.41195  0.71653  1.0000
  H   H19       1.0  0.02522  0.50377  0.82814  1.0000
  O   O58       1.0  0.97105  0.58053  0.58188  1.0000
  O   O59       1.0  0.00974  0.63892  0.90505  1.0000
  C   C95       1.0  0.98633  0.54284  0.53939  1.0000
  C   C96       1.0  0.01036  0.59292  0.87225  1.0000
  C   C97       1.0  0.98533  0.49772  0.59589  1.0000
  C   C98       1.0  0.00214  0.54519  0.94054  1.0000
  O   O60       1.0  0.02108  0.58814  0.78410  1.0000
  H   H20       1.0  0.97490  0.49623  0.67246  1.0000
  H   H21       1.0  0.64139  0.83013  0.83922  1.0000
  O   O61       1.0  0.69591  0.75354  0.58576  1.0000
  O   O62       1.0  0.65693  0.69499  0.76237  1.0000
  C   C99       1.0  0.68049  0.79115  0.62810  1.0000
  C   C100      1.0  0.65641  0.74103  0.79518  1.0000
  C   C101      1.0  0.68146  0.83622  0.57154  1.0000
  C   C102      1.0  0.66459  0.78875  0.72692  1.0000
  O   O63       1.0  0.64578  0.74586  0.88336  1.0000
  H   H22       1.0  0.69187  0.83768  0.99496  1.0000
  O   O64       1.0  0.63760  0.91445  0.74849  1.0000
  O   O65       1.0  0.67634  0.97280  0.57152  1.0000
  C   C103      1.0  0.65286  0.87672  0.70610  1.0000
  C   C104      1.0  0.67695  0.92677  0.53890  1.0000
  C   C105      1.0  0.65185  0.83161  0.76265  1.0000
  C   C106      1.0  0.66873  0.87908  0.60728  1.0000
  O   O66       1.0  0.68762  0.92187  0.95077  1.0000
  H   H23       1.0  0.35854  0.17068  0.66146  1.0000
  O   O67       1.0  0.30498  0.24791  0.91524  1.0000
  O   O68       1.0  0.34361  0.30617  0.73832  1.0000
  C   C107      1.0  0.32001  0.21005  0.87272  1.0000
  C   C108      1.0  0.34414  0.26012  0.70554  1.0000
  C   C109      1.0  0.31879  0.16482  0.92922  1.0000
  C   C110      1.0  0.33575  0.21233  0.77385  1.0000
  O   O69       1.0  0.35484  0.25531  0.61739  1.0000
  H   H24       1.0  0.30842  0.16338  0.50581  1.0000
  O   O70       1.0  0.36197  0.08616  0.75203  1.0000
  O   O71       1.0  0.32327  0.02788  0.92899  1.0000
  C   C111      1.0  0.34693  0.12402  0.79454  1.0000
  C   C112      1.0  0.32275  0.07393  0.96174  1.0000
  C   C113      1.0  0.34814  0.16924  0.73804  1.0000
  C   C114      1.0  0.33117  0.12172  0.89341  1.0000
  O   O72       1.0  0.31199  0.07872  0.54985  1.0000
  O   O73       1.0  0.58106  0.61025  0.91903  1.0000
  O   O74       1.0  0.63917  0.63005  0.59591  1.0000
  C   C115      1.0  0.54336  0.55723  0.96140  1.0000
  C   C116      1.0  0.59343  0.58314  0.62857  1.0000
  C   C117      1.0  0.49813  0.51322  0.90493  1.0000
  C   C118      1.0  0.54583  0.54361  0.56017  1.0000
  O   O75       1.0  0.58885  0.56756  0.71666  1.0000
  H   H25       1.0  0.49660  0.52215  0.82832  1.0000
  O   O76       1.0  0.41967  0.39116  0.58195  1.0000
  O   O77       1.0  0.36158  0.37131  0.90487  1.0000
  C   C119      1.0  0.45737  0.44416  0.53946  1.0000
  C   C120      1.0  0.40727  0.41826  0.87223  1.0000
  C   C121      1.0  0.50259  0.48817  0.59592  1.0000
  C   C122      1.0  0.45488  0.45778  0.94068  1.0000
  O   O78       1.0  0.41179  0.43389  0.78417  1.0000
  H   H26       1.0  0.50412  0.47925  0.67252  1.0000
  C   C123      1.0  0.07333  0.75091  0.53893  1.0000
  C   C124      1.0  0.16867  0.82089  0.76255  1.0000
  C   C125      1.0  0.12098  0.79042  0.60731  1.0000
  O   O79       1.0  0.07781  0.76656  0.95088  1.0000
  H   H27       1.0  0.17020  0.81200  0.83917  1.0000
  O   O80       1.0  0.24722  0.94284  0.58545  1.0000
  O   O81       1.0  0.30531  0.96271  0.76238  1.0000
  C   C126      1.0  0.20952  0.88984  0.62791  1.0000
  C   C127      1.0  0.25961  0.91581  0.79509  1.0000
  C   C128      1.0  0.16428  0.84582  0.57148  1.0000
  C   C129      1.0  0.21197  0.87628  0.72671  1.0000
  O   O82       1.0  0.25510  0.90021  0.88317  1.0000
  H   H28       1.0  0.16276  0.85470  0.99485  1.0000
  O   O83       1.0  0.08570  0.72391  0.74863  1.0000
  O   O84       1.0  0.02763  0.70397  0.57159  1.0000
  C   C130      1.0  0.12342  0.77687  0.70613  1.0000
  C   C131      1.0  0.92695  0.24902  0.96149  1.0000
  C   C132      1.0  0.83124  0.17941  0.73801  1.0000
  C   C133      1.0  0.87916  0.20966  0.89315  1.0000
  O   O85       1.0  0.92266  0.23320  0.54944  1.0000
  H   H29       1.0  0.82969  0.18833  0.66141  1.0000
  O   O86       1.0  0.75226  0.05765  0.91525  1.0000
  O   O87       1.0  0.69428  0.03781  0.73825  1.0000
  C   C134      1.0  0.79022  0.11051  0.87265  1.0000
  C   C135      1.0  0.73997  0.08471  0.70554  1.0000
  C   C136      1.0  0.83565  0.15438  0.92901  1.0000
  C   C137      1.0  0.78775  0.12412  0.77387  1.0000
  O   O88       1.0  0.74439  0.10042  0.61751  1.0000
  H   H30       1.0  0.83719  0.14546  0.50561  1.0000
  O   O89       1.0  0.91442  0.27624  0.75187  1.0000
  O   O90       1.0  0.97255  0.29605  0.92888  1.0000
  C   C138      1.0  0.87663  0.22331  0.79440  1.0000
  O   O91       1.0  0.39030  0.97150  0.91872  1.0000
  O   O92       1.0  0.37061  0.01015  0.59560  1.0000
  C   C139      1.0  0.44330  0.98679  0.96116  1.0000
  C   C140      1.0  0.41723  0.01076  0.62833  1.0000
  C   C141      1.0  0.48732  0.98582  0.90448  1.0000
  C   C142      1.0  0.45678  0.00260  0.56010  1.0000
  O   O93       1.0  0.43256  0.02121  0.71662  1.0000
  H   H31       1.0  0.47839  0.97560  0.82783  1.0000
  O   O94       1.0  0.60922  0.02909  0.58170  1.0000
  O   O95       1.0  0.62891  0.99053  0.90477  1.0000
  C   C143      1.0  0.55622  0.01382  0.53925  1.0000
  C   C144      1.0  0.58230  0.98993  0.87202  1.0000
  C   C145      1.0  0.51220  0.01481  0.59592  1.0000
  C   C146      1.0  0.54274  0.99805  0.94030  1.0000
  O   O96       1.0  0.56699  0.97952  0.78371  1.0000
  H   H32       1.0  0.52112  0.02503  0.67257  1.0000
  O   O97       1.0  0.27654  0.36254  0.74852  1.0000
  O   O98       1.0  0.29627  0.32392  0.57170  1.0000
  C   C147      1.0  0.22354  0.34727  0.70609  1.0000
  C   C148      1.0  0.24966  0.32333  0.53896  1.0000
  C   C149      1.0  0.17953  0.34830  0.76271  1.0000
  C   C150      1.0  0.21008  0.33146  0.60716  1.0000
  O   O99       1.0  0.23434  0.31288  0.95066  1.0000
  H   H33       1.0  0.18845  0.35858  0.83935  1.0000
  O   O100      1.0  0.05759  0.30479  0.58551  1.0000
  O   O101      1.0  0.03798  0.34371  0.76207  1.0000
  C   C151      1.0  0.11063  0.32019  0.62794  1.0000
  C   C152      1.0  0.08452  0.34424  0.79497  1.0000
  C   C153      1.0  0.15466  0.31921  0.57128  1.0000
  C   C154      1.0  0.12411  0.33606  0.72684  1.0000
  O   O102      1.0  0.09979  0.35467  0.88329  1.0000
  H   H34       1.0  0.14574  0.30898  0.99462  1.0000
  O   O103      1.0  0.72416  0.63880  0.75222  1.0000
  O   O104      1.0  0.70452  0.67745  0.92916  1.0000
  C   C155      1.0  0.77710  0.65391  0.79469  1.0000
  C   C156      1.0  0.75117  0.67812  0.96183  1.0000
  C   C157      1.0  0.82100  0.65267  0.73804  1.0000
  C   C158      1.0  0.79059  0.66971  0.89365  1.0000
  O   O105      1.0  0.76665  0.68884  0.55007  1.0000
  H   H35       1.0  0.81204  0.64243  0.66140  1.0000
  O   O106      1.0  0.94267  0.69529  0.91538  1.0000
  O   O107      1.0  0.96226  0.65658  0.73844  1.0000
  C   C159      1.0  0.88976  0.68028  0.87288  1.0000
  C   C160      1.0  0.91569  0.65607  0.70571  1.0000
  C   C161      1.0  0.84587  0.68154  0.92952  1.0000
  C   C162      1.0  0.87630  0.66455  0.77390  1.0000
  O   O108      1.0  0.90027  0.64546  0.61745  1.0000
  H   H36       1.0  0.85482  0.69175  0.50618  1.0000
  N   N19       1.0  0.44221  0.31826  0.94764  1.0000
  C   C163      1.0  0.49294  0.34582  0.92410  1.0000
  S   S19       1.0  0.56304  0.38161  0.89108  1.0000
  N   N20       1.0  0.10828  0.65093  0.61446  1.0000
  C   C164      1.0  0.15900  0.67861  0.59096  1.0000
  S   S20       1.0  0.22908  0.71463  0.55788  1.0000
  N   N21       1.0  0.77455  0.98454  0.78077  1.0000
  C   C165      1.0  0.82518  0.01184  0.75674  1.0000
  S   S21       1.0  0.89549  0.04864  0.72495  1.0000
  N   N22       1.0  0.68114  0.12400  0.94686  1.0000
  C   C166      1.0  0.65473  0.14840  0.92351  1.0000
  S   S22       1.0  0.61974  0.18358  0.89066  1.0000
  N   N23       1.0  0.34854  0.45743  0.61364  1.0000
  C   C167      1.0  0.32195  0.48161  0.59013  1.0000
  S   S23       1.0  0.28668  0.51652  0.55727  1.0000
  N   N24       1.0  0.01480  0.79018  0.78051  1.0000
  C   C168      1.0  0.98830  0.81453  0.75740  1.0000
  S   S24       1.0  0.95300  0.84942  0.72469  1.0000
  N   N25       1.0  0.87599  0.55797  0.94738  1.0000
  C   C169      1.0  0.85216  0.50716  0.92409  1.0000
  S   S25       1.0  0.81758  0.43701  0.89126  1.0000
  N   N26       1.0  0.54249  0.89177  0.61446  1.0000
  C   C170      1.0  0.51883  0.84100  0.59096  1.0000
  S   S26       1.0  0.48451  0.77089  0.55795  1.0000
  N   N27       1.0  0.20958  0.22522  0.78169  1.0000
  C   C171      1.0  0.18605  0.17441  0.75854  1.0000
  S   S27       1.0  0.15204  0.10426  0.72571  1.0000
  N   N28       1.0  0.55872  0.68336  0.55326  1.0000
  C   C172      1.0  0.50799  0.65555  0.57665  1.0000
  S   S28       1.0  0.43788  0.61935  0.60956  1.0000
  N   N29       1.0  0.22485  0.01587  0.71985  1.0000
  C   C173      1.0  0.17415  0.98831  0.74352  1.0000
  S   S29       1.0  0.10404  0.95246  0.77650  1.0000
  N   N30       1.0  0.89207  0.34941  0.88612  1.0000
  C   C174      1.0  0.84136  0.32161  0.90965  1.0000
  S   S30       1.0  0.77128  0.28539  0.94272  1.0000
  N   N31       1.0  0.31824  0.87661  0.55357  1.0000
  C   C175      1.0  0.34485  0.85247  0.57719  1.0000
  S   S31       1.0  0.38013  0.81757  0.60999  1.0000
  N   N32       1.0  0.98593  0.21054  0.72181  1.0000
  C   C176      1.0  0.01159  0.18541  0.74525  1.0000
  S   S32       1.0  0.04704  0.15055  0.77736  1.0000
  N   N33       1.0  0.65186  0.54377  0.88674  1.0000
  C   C177      1.0  0.67864  0.51979  0.91030  1.0000
  S   S33       1.0  0.71409  0.48509  0.94321  1.0000
  N   N34       1.0  0.12423  0.44208  0.55309  1.0000
  C   C178      1.0  0.14780  0.49285  0.57654  1.0000
  S   S34       1.0  0.18200  0.56299  0.60939  1.0000
  N   N35       1.0  0.79050  0.77586  0.72098  1.0000
  C   C179      1.0  0.81464  0.82677  0.74373  1.0000
  S   S35       1.0  0.84956  0.89703  0.77603  1.0000
  N   N36       1.0  0.45726  0.10876  0.88601  1.0000
  C   C180      1.0  0.48068  0.15952  0.90955  1.0000
  S   S36       1.0  0.51463  0.22960  0.94266  1.0000
  Mg  Mg19      1.0  0.05188  0.36431  0.99432  1.0000
  Mg  Mg20      1.0  0.35439  0.38546  0.67314  1.0000
  Mg  Mg21      1.0  0.28216  0.30300  0.83986  1.0000
  Mg  Mg22      1.0  0.31247  0.94862  0.99416  1.0000
  Mg  Mg23      1.0  0.71858  0.69835  0.66099  1.0000
  Mg  Mg24      1.0  0.02045  0.71811  0.83988  1.0000
  Mg  Mg25      1.0  0.36466  0.31315  0.50655  1.0000
  Mg  Mg26      1.0  0.97965  0.28184  0.66081  1.0000
  Mg  Mg27      1.0  0.38471  0.03106  0.82752  1.0000
  Mg  Mg28      1.0  0.03067  0.64581  0.67324  1.0000
  Mg  Mg29      1.0  0.64627  0.61596  0.82772  1.0000
  Mg  Mg30      1.0  0.63619  0.68830  0.99442  1.0000
  Mg  Mg31      1.0  0.69717  0.97952  0.84008  1.0000
  Mg  Mg32      1.0  0.94826  0.63564  0.50653  1.0000
  Mg  Mg33      1.0  0.30230  0.02094  0.66080  1.0000
  Mg  Mg34      1.0  0.68708  0.05208  0.50623  1.0000
  Mg  Mg35      1.0  0.61495  0.96961  0.67305  1.0000
  Mg  Mg36      1.0  0.96955  0.35428  0.82732  1.0000
