data_DISROP_FSR
_audit_creation_date              2024-06-11
_audit_creation_method            'Materials Studio'
_symmetry_space_group_name_H-M    'P1'
_symmetry_Int_Tables_number       1
_symmetry_cell_setting            triclinic
loop_
_symmetry_equiv_pos_as_xyz
  x,y,z
_cell_length_a                    17.8260
_cell_length_b                    17.8260
_cell_length_c                    17.8260
_cell_angle_alpha                 90.0000
_cell_angle_beta                  90.0000
_cell_angle_gamma                 90.0000
loop_
_atom_site_label
_atom_site_type_symbol
_atom_site_fract_x
_atom_site_fract_y
_atom_site_fract_z
_atom_site_U_iso_or_equiv
_atom_site_adp_type
_atom_site_occupancy
Zr1    Zr    0.48943   0.51118   0.63816   0.00000  Uiso   1.00
O2     O     0.59170   0.51310   0.71420   0.00000  Uiso   1.00
O3     O     0.69120   0.49350   0.62660   0.00000  Uiso   1.00
O4     O     0.37150   0.52040   0.69090   0.00000  Uiso   1.00
O5     O     0.28570   0.52180   0.58880   0.00000  Uiso   1.00
O6     O     0.43080   0.58110   0.55630   0.00000  Uiso   1.00
C7     C     0.65801   0.50500   0.68922   0.00000  Uiso   1.00
C8     C     0.70800   0.50450   0.75998   0.00000  Uiso   1.00
C9     C     0.30883   0.52020   0.65648   0.00000  Uiso   1.00
C10    C     0.23948   0.51470   0.70815   0.00000  Uiso   1.00
N11    N     0.67800   0.56260   0.81680   0.00000  Uiso   1.00
H12    H     0.69998   0.55490   0.86220   0.00000  Uiso   1.00
H13    H     0.68899   0.60969   0.80034   0.00000  Uiso   1.00
H14    H     0.69639   0.45943   0.79026   0.00000  Uiso   1.00
N15    N     0.17430   0.56110   0.67530   0.00000  Uiso   1.00
H16    H     0.13309   0.55592   0.70495   0.00000  Uiso   1.00
H17    H     0.16367   0.54456   0.62823   0.00000  Uiso   1.00
H18    H     0.21171   0.46810   0.69640   0.00000  Uiso   1.00
Zr19   Zr    0.01057   0.98882   0.63816   0.00000  Uiso   1.00
O20    O     0.90830   0.98690   0.71420   0.00000  Uiso   1.00
O21    O     0.80880   0.00650   0.62660   0.00000  Uiso   1.00
O22    O     0.12850   0.97960   0.69090   0.00000  Uiso   1.00
O23    O     0.21430   0.97820   0.58880   0.00000  Uiso   1.00
O24    O     0.06920   0.91890   0.55630   0.00000  Uiso   1.00
C25    C     0.84199   0.99500   0.68922   0.00000  Uiso   1.00
C26    C     0.79200   0.99550   0.75998   0.00000  Uiso   1.00
C27    C     0.19117   0.97980   0.65648   0.00000  Uiso   1.00
C28    C     0.26052   0.98530   0.70815   0.00000  Uiso   1.00
N29    N     0.82200   0.93740   0.81680   0.00000  Uiso   1.00
H30    H     0.80002   0.94510   0.86220   0.00000  Uiso   1.00
H31    H     0.81101   0.89031   0.80034   0.00000  Uiso   1.00
H32    H     0.80361   0.04057   0.79026   0.00000  Uiso   1.00
N33    N     0.32570   0.93890   0.67530   0.00000  Uiso   1.00
H34    H     0.36691   0.94408   0.70495   0.00000  Uiso   1.00
H35    H     0.33633   0.95544   0.62823   0.00000  Uiso   1.00
H36    H     0.28829   0.03190   0.69640   0.00000  Uiso   1.00
Zr37   Zr    0.01057   0.51118   0.86184   0.00000  Uiso   1.00
O38    O     0.90830   0.51310   0.78580   0.00000  Uiso   1.00
O39    O     0.80880   0.49350   0.87340   0.00000  Uiso   1.00
O40    O     0.12850   0.52040   0.80910   0.00000  Uiso   1.00
O41    O     0.21430   0.52180   0.91120   0.00000  Uiso   1.00
O42    O     0.06920   0.58110   0.94370   0.00000  Uiso   1.00
C43    C     0.84199   0.50500   0.81078   0.00000  Uiso   1.00
C44    C     0.79200   0.50450   0.74002   0.00000  Uiso   1.00
C45    C     0.19117   0.52020   0.84352   0.00000  Uiso   1.00
C46    C     0.26052   0.51470   0.79185   0.00000  Uiso   1.00
N47    N     0.82200   0.56260   0.68320   0.00000  Uiso   1.00
H48    H     0.80002   0.55490   0.63780   0.00000  Uiso   1.00
H49    H     0.81101   0.60969   0.69966   0.00000  Uiso   1.00
H50    H     0.80361   0.45943   0.70974   0.00000  Uiso   1.00
N51    N     0.32570   0.56110   0.82470   0.00000  Uiso   1.00
H52    H     0.36691   0.55592   0.79505   0.00000  Uiso   1.00
H53    H     0.33633   0.54456   0.87177   0.00000  Uiso   1.00
H54    H     0.28829   0.46810   0.80360   0.00000  Uiso   1.00
Zr55   Zr    0.48943   0.98882   0.86184   0.00000  Uiso   1.00
O56    O     0.59170   0.98690   0.78580   0.00000  Uiso   1.00
O57    O     0.69120   0.00650   0.87340   0.00000  Uiso   1.00
O58    O     0.37150   0.97960   0.80910   0.00000  Uiso   1.00
O59    O     0.28570   0.97820   0.91120   0.00000  Uiso   1.00
O60    O     0.43080   0.91890   0.94370   0.00000  Uiso   1.00
C61    C     0.65801   0.99500   0.81078   0.00000  Uiso   1.00
C62    C     0.70800   0.99550   0.74002   0.00000  Uiso   1.00
C63    C     0.30883   0.97980   0.84352   0.00000  Uiso   1.00
C64    C     0.23948   0.98530   0.79185   0.00000  Uiso   1.00
N65    N     0.67800   0.93740   0.68320   0.00000  Uiso   1.00
H66    H     0.69998   0.94510   0.63780   0.00000  Uiso   1.00
H67    H     0.68899   0.89031   0.69966   0.00000  Uiso   1.00
H68    H     0.69639   0.04057   0.70974   0.00000  Uiso   1.00
N69    N     0.17430   0.93890   0.82470   0.00000  Uiso   1.00
H70    H     0.13309   0.94408   0.79505   0.00000  Uiso   1.00
H71    H     0.16367   0.95544   0.87177   0.00000  Uiso   1.00
H72    H     0.21171   0.03190   0.80360   0.00000  Uiso   1.00
Zr73   Zr    0.63816   0.48943   0.51118   0.00000  Uiso   1.00
O74    O     0.71420   0.59170   0.51310   0.00000  Uiso   1.00
O75    O     0.62660   0.69120   0.49350   0.00000  Uiso   1.00
O76    O     0.69090   0.37150   0.52040   0.00000  Uiso   1.00
O77    O     0.58880   0.28570   0.52180   0.00000  Uiso   1.00
O78    O     0.55630   0.43080   0.58110   0.00000  Uiso   1.00
C79    C     0.68922   0.65801   0.50500   0.00000  Uiso   1.00
C80    C     0.75998   0.70800   0.50450   0.00000  Uiso   1.00
C81    C     0.65648   0.30883   0.52020   0.00000  Uiso   1.00
C82    C     0.70815   0.23948   0.51470   0.00000  Uiso   1.00
N83    N     0.81680   0.67800   0.56260   0.00000  Uiso   1.00
H84    H     0.86220   0.69998   0.55490   0.00000  Uiso   1.00
H85    H     0.80034   0.68899   0.60969   0.00000  Uiso   1.00
H86    H     0.79026   0.69639   0.45943   0.00000  Uiso   1.00
N87    N     0.67530   0.17430   0.56110   0.00000  Uiso   1.00
H88    H     0.70495   0.13309   0.55592   0.00000  Uiso   1.00
H89    H     0.62823   0.16367   0.54456   0.00000  Uiso   1.00
H90    H     0.69640   0.21171   0.46810   0.00000  Uiso   1.00
Zr91   Zr    0.63816   0.01057   0.98882   0.00000  Uiso   1.00
O92    O     0.71420   0.90830   0.98690   0.00000  Uiso   1.00
O93    O     0.62660   0.80880   0.00650   0.00000  Uiso   1.00
O94    O     0.69090   0.12850   0.97960   0.00000  Uiso   1.00
O95    O     0.58880   0.21430   0.97820   0.00000  Uiso   1.00
O96    O     0.55630   0.06920   0.91890   0.00000  Uiso   1.00
C97    C     0.68922   0.84199   0.99500   0.00000  Uiso   1.00
C98    C     0.75998   0.79200   0.99550   0.00000  Uiso   1.00
C99    C     0.65648   0.19117   0.97980   0.00000  Uiso   1.00
C100   C     0.70815   0.26052   0.98530   0.00000  Uiso   1.00
N101   N     0.81680   0.82200   0.93740   0.00000  Uiso   1.00
H102   H     0.86220   0.80002   0.94510   0.00000  Uiso   1.00
H103   H     0.80034   0.81101   0.89031   0.00000  Uiso   1.00
H104   H     0.79026   0.80361   0.04057   0.00000  Uiso   1.00
N105   N     0.67530   0.32570   0.93890   0.00000  Uiso   1.00
H106   H     0.70495   0.36691   0.94408   0.00000  Uiso   1.00
H107   H     0.62823   0.33633   0.95544   0.00000  Uiso   1.00
H108   H     0.69640   0.28829   0.03190   0.00000  Uiso   1.00
Zr109  Zr    0.86184   0.01057   0.51118   0.00000  Uiso   1.00
O110   O     0.78580   0.90830   0.51310   0.00000  Uiso   1.00
O111   O     0.87340   0.80880   0.49350   0.00000  Uiso   1.00
O112   O     0.80910   0.12850   0.52040   0.00000  Uiso   1.00
O113   O     0.91120   0.21430   0.52180   0.00000  Uiso   1.00
O114   O     0.94370   0.06920   0.58110   0.00000  Uiso   1.00
C115   C     0.81078   0.84199   0.50500   0.00000  Uiso   1.00
C116   C     0.74002   0.79200   0.50450   0.00000  Uiso   1.00
C117   C     0.84352   0.19117   0.52020   0.00000  Uiso   1.00
C118   C     0.79185   0.26052   0.51470   0.00000  Uiso   1.00
N119   N     0.68320   0.82200   0.56260   0.00000  Uiso   1.00
H120   H     0.63780   0.80002   0.55490   0.00000  Uiso   1.00
H121   H     0.69966   0.81101   0.60969   0.00000  Uiso   1.00
H122   H     0.70974   0.80361   0.45943   0.00000  Uiso   1.00
N123   N     0.82470   0.32570   0.56110   0.00000  Uiso   1.00
H124   H     0.79505   0.36691   0.55592   0.00000  Uiso   1.00
H125   H     0.87177   0.33633   0.54456   0.00000  Uiso   1.00
H126   H     0.80360   0.28829   0.46810   0.00000  Uiso   1.00
Zr127  Zr    0.86184   0.48943   0.98882   0.00000  Uiso   1.00
O128   O     0.78580   0.59170   0.98690   0.00000  Uiso   1.00
O129   O     0.87340   0.69120   0.00650   0.00000  Uiso   1.00
O130   O     0.80910   0.37150   0.97960   0.00000  Uiso   1.00
O131   O     0.91120   0.28570   0.97820   0.00000  Uiso   1.00
O132   O     0.94370   0.43080   0.91890   0.00000  Uiso   1.00
C133   C     0.81078   0.65801   0.99500   0.00000  Uiso   1.00
C134   C     0.74002   0.70800   0.99550   0.00000  Uiso   1.00
C135   C     0.84352   0.30883   0.97980   0.00000  Uiso   1.00
C136   C     0.79185   0.23948   0.98530   0.00000  Uiso   1.00
N137   N     0.68320   0.67800   0.93740   0.00000  Uiso   1.00
H138   H     0.63780   0.69998   0.94510   0.00000  Uiso   1.00
H139   H     0.69966   0.68899   0.89031   0.00000  Uiso   1.00
H140   H     0.70974   0.69639   0.04057   0.00000  Uiso   1.00
N141   N     0.82470   0.17430   0.93890   0.00000  Uiso   1.00
H142   H     0.79505   0.13309   0.94408   0.00000  Uiso   1.00
H143   H     0.87177   0.16367   0.95544   0.00000  Uiso   1.00
H144   H     0.80360   0.21171   0.03190   0.00000  Uiso   1.00
Zr145  Zr    0.51118   0.63816   0.48943   0.00000  Uiso   1.00
O146   O     0.51310   0.71420   0.59170   0.00000  Uiso   1.00
O147   O     0.49350   0.62660   0.69120   0.00000  Uiso   1.00
O148   O     0.52040   0.69090   0.37150   0.00000  Uiso   1.00
O149   O     0.52180   0.58880   0.28570   0.00000  Uiso   1.00
O150   O     0.58110   0.55630   0.43080   0.00000  Uiso   1.00
C151   C     0.50500   0.68922   0.65801   0.00000  Uiso   1.00
C152   C     0.50450   0.75998   0.70800   0.00000  Uiso   1.00
C153   C     0.52020   0.65648   0.30883   0.00000  Uiso   1.00
C154   C     0.51470   0.70815   0.23948   0.00000  Uiso   1.00
N155   N     0.56260   0.81680   0.67800   0.00000  Uiso   1.00
H156   H     0.55490   0.86220   0.69998   0.00000  Uiso   1.00
H157   H     0.60969   0.80034   0.68899   0.00000  Uiso   1.00
H158   H     0.45943   0.79026   0.69639   0.00000  Uiso   1.00
N159   N     0.56110   0.67530   0.17430   0.00000  Uiso   1.00
H160   H     0.55592   0.70495   0.13309   0.00000  Uiso   1.00
H161   H     0.54456   0.62823   0.16367   0.00000  Uiso   1.00
H162   H     0.46810   0.69640   0.21171   0.00000  Uiso   1.00
Zr163  Zr    0.98882   0.63816   0.01057   0.00000  Uiso   1.00
O164   O     0.98690   0.71420   0.90830   0.00000  Uiso   1.00
O165   O     0.00650   0.62660   0.80880   0.00000  Uiso   1.00
O166   O     0.97960   0.69090   0.12850   0.00000  Uiso   1.00
O167   O     0.97820   0.58880   0.21430   0.00000  Uiso   1.00
O168   O     0.91890   0.55630   0.06920   0.00000  Uiso   1.00
C169   C     0.99500   0.68922   0.84199   0.00000  Uiso   1.00
C170   C     0.99550   0.75998   0.79200   0.00000  Uiso   1.00
C171   C     0.97980   0.65648   0.19117   0.00000  Uiso   1.00
C172   C     0.98530   0.70815   0.26052   0.00000  Uiso   1.00
N173   N     0.93740   0.81680   0.82200   0.00000  Uiso   1.00
H174   H     0.94510   0.86220   0.80002   0.00000  Uiso   1.00
H175   H     0.89031   0.80034   0.81101   0.00000  Uiso   1.00
H176   H     0.04057   0.79026   0.80361   0.00000  Uiso   1.00
N177   N     0.93890   0.67530   0.32570   0.00000  Uiso   1.00
H178   H     0.94408   0.70495   0.36691   0.00000  Uiso   1.00
H179   H     0.95544   0.62823   0.33633   0.00000  Uiso   1.00
H180   H     0.03190   0.69640   0.28829   0.00000  Uiso   1.00
Zr181  Zr    0.51118   0.86184   0.01057   0.00000  Uiso   1.00
O182   O     0.51310   0.78580   0.90830   0.00000  Uiso   1.00
O183   O     0.49350   0.87340   0.80880   0.00000  Uiso   1.00
O184   O     0.52040   0.80910   0.12850   0.00000  Uiso   1.00
O185   O     0.52180   0.91120   0.21430   0.00000  Uiso   1.00
O186   O     0.58110   0.94370   0.06920   0.00000  Uiso   1.00
C187   C     0.50500   0.81078   0.84199   0.00000  Uiso   1.00
C188   C     0.50450   0.74002   0.79200   0.00000  Uiso   1.00
C189   C     0.52020   0.84352   0.19117   0.00000  Uiso   1.00
C190   C     0.51470   0.79185   0.26052   0.00000  Uiso   1.00
N191   N     0.56260   0.68320   0.82200   0.00000  Uiso   1.00
H192   H     0.55490   0.63780   0.80002   0.00000  Uiso   1.00
H193   H     0.60969   0.69966   0.81101   0.00000  Uiso   1.00
H194   H     0.45943   0.70974   0.80361   0.00000  Uiso   1.00
N195   N     0.56110   0.82470   0.32570   0.00000  Uiso   1.00
H196   H     0.55592   0.79505   0.36691   0.00000  Uiso   1.00
H197   H     0.54456   0.87177   0.33633   0.00000  Uiso   1.00
H198   H     0.46810   0.80360   0.28829   0.00000  Uiso   1.00
Zr199  Zr    0.98882   0.86184   0.48943   0.00000  Uiso   1.00
O200   O     0.98690   0.78580   0.59170   0.00000  Uiso   1.00
O201   O     0.00650   0.87340   0.69120   0.00000  Uiso   1.00
O202   O     0.97960   0.80910   0.37150   0.00000  Uiso   1.00
O203   O     0.97820   0.91120   0.28570   0.00000  Uiso   1.00
O204   O     0.91890   0.94370   0.43080   0.00000  Uiso   1.00
C205   C     0.99500   0.81078   0.65801   0.00000  Uiso   1.00
C206   C     0.99550   0.74002   0.70800   0.00000  Uiso   1.00
C207   C     0.97980   0.84352   0.30883   0.00000  Uiso   1.00
C208   C     0.98530   0.79185   0.23948   0.00000  Uiso   1.00
N209   N     0.93740   0.68320   0.67800   0.00000  Uiso   1.00
H210   H     0.94510   0.63780   0.69998   0.00000  Uiso   1.00
H211   H     0.89031   0.69966   0.68899   0.00000  Uiso   1.00
H212   H     0.04057   0.70974   0.69639   0.00000  Uiso   1.00
N213   N     0.93890   0.82470   0.17430   0.00000  Uiso   1.00
H214   H     0.94408   0.79505   0.13309   0.00000  Uiso   1.00
H215   H     0.95544   0.87177   0.16367   0.00000  Uiso   1.00
H216   H     0.03190   0.80360   0.21171   0.00000  Uiso   1.00
Zr217  Zr    0.51057   0.48882   0.36184   0.00000  Uiso   1.00
O218   O     0.40830   0.48690   0.28580   0.00000  Uiso   1.00
O219   O     0.30880   0.50650   0.37340   0.00000  Uiso   1.00
O220   O     0.62850   0.47960   0.30910   0.00000  Uiso   1.00
O221   O     0.71430   0.47820   0.41120   0.00000  Uiso   1.00
O222   O     0.56920   0.41890   0.44370   0.00000  Uiso   1.00
C223   C     0.34199   0.49500   0.31078   0.00000  Uiso   1.00
C224   C     0.29200   0.49550   0.24002   0.00000  Uiso   1.00
C225   C     0.69117   0.47980   0.34352   0.00000  Uiso   1.00
C226   C     0.76052   0.48530   0.29185   0.00000  Uiso   1.00
N227   N     0.32200   0.43740   0.18320   0.00000  Uiso   1.00
H228   H     0.30002   0.44510   0.13780   0.00000  Uiso   1.00
H229   H     0.31101   0.39031   0.19966   0.00000  Uiso   1.00
H230   H     0.30361   0.54057   0.20974   0.00000  Uiso   1.00
N231   N     0.82570   0.43890   0.32470   0.00000  Uiso   1.00
H232   H     0.86691   0.44408   0.29505   0.00000  Uiso   1.00
H233   H     0.83633   0.45544   0.37177   0.00000  Uiso   1.00
H234   H     0.78829   0.53190   0.30360   0.00000  Uiso   1.00
Zr235  Zr    0.98943   0.01118   0.36184   0.00000  Uiso   1.00
O236   O     0.09170   0.01310   0.28580   0.00000  Uiso   1.00
O237   O     0.19120   0.99350   0.37340   0.00000  Uiso   1.00
O238   O     0.87150   0.02040   0.30910   0.00000  Uiso   1.00
O239   O     0.78570   0.02180   0.41120   0.00000  Uiso   1.00
O240   O     0.93080   0.08110   0.44370   0.00000  Uiso   1.00
C241   C     0.15801   0.00500   0.31078   0.00000  Uiso   1.00
C242   C     0.20800   0.00450   0.24002   0.00000  Uiso   1.00
C243   C     0.80883   0.02020   0.34352   0.00000  Uiso   1.00
C244   C     0.73948   0.01470   0.29185   0.00000  Uiso   1.00
N245   N     0.17800   0.06260   0.18320   0.00000  Uiso   1.00
H246   H     0.19998   0.05490   0.13780   0.00000  Uiso   1.00
H247   H     0.18899   0.10969   0.19966   0.00000  Uiso   1.00
H248   H     0.19639   0.95943   0.20974   0.00000  Uiso   1.00
N249   N     0.67430   0.06110   0.32470   0.00000  Uiso   1.00
H250   H     0.63309   0.05592   0.29505   0.00000  Uiso   1.00
H251   H     0.66367   0.04456   0.37177   0.00000  Uiso   1.00
H252   H     0.71171   0.96810   0.30360   0.00000  Uiso   1.00
Zr253  Zr    0.98943   0.48882   0.13816   0.00000  Uiso   1.00
O254   O     0.09170   0.48690   0.21420   0.00000  Uiso   1.00
O255   O     0.19120   0.50650   0.12660   0.00000  Uiso   1.00
O256   O     0.87150   0.47960   0.19090   0.00000  Uiso   1.00
O257   O     0.78570   0.47820   0.08880   0.00000  Uiso   1.00
O258   O     0.93080   0.41890   0.05630   0.00000  Uiso   1.00
C259   C     0.15801   0.49500   0.18922   0.00000  Uiso   1.00
C260   C     0.20800   0.49550   0.25998   0.00000  Uiso   1.00
C261   C     0.80883   0.47980   0.15648   0.00000  Uiso   1.00
C262   C     0.73948   0.48530   0.20815   0.00000  Uiso   1.00
N263   N     0.17800   0.43740   0.31680   0.00000  Uiso   1.00
H264   H     0.19998   0.44510   0.36220   0.00000  Uiso   1.00
H265   H     0.18899   0.39031   0.30034   0.00000  Uiso   1.00
H266   H     0.19639   0.54057   0.29026   0.00000  Uiso   1.00
N267   N     0.67430   0.43890   0.17530   0.00000  Uiso   1.00
H268   H     0.63309   0.44408   0.20495   0.00000  Uiso   1.00
H269   H     0.66367   0.45544   0.12823   0.00000  Uiso   1.00
H270   H     0.71171   0.53190   0.19640   0.00000  Uiso   1.00
Zr271  Zr    0.51057   0.01118   0.13816   0.00000  Uiso   1.00
O272   O     0.40830   0.01310   0.21420   0.00000  Uiso   1.00
O273   O     0.30880   0.99350   0.12660   0.00000  Uiso   1.00
O274   O     0.62850   0.02040   0.19090   0.00000  Uiso   1.00
O275   O     0.71430   0.02180   0.08880   0.00000  Uiso   1.00
O276   O     0.56920   0.08110   0.05630   0.00000  Uiso   1.00
C277   C     0.34199   0.00500   0.18922   0.00000  Uiso   1.00
C278   C     0.29200   0.00450   0.25998   0.00000  Uiso   1.00
C279   C     0.69117   0.02020   0.15648   0.00000  Uiso   1.00
C280   C     0.76052   0.01470   0.20815   0.00000  Uiso   1.00
N281   N     0.32200   0.06260   0.31680   0.00000  Uiso   1.00
H282   H     0.30002   0.05490   0.36220   0.00000  Uiso   1.00
H283   H     0.31101   0.10969   0.30034   0.00000  Uiso   1.00
H284   H     0.30361   0.95943   0.29026   0.00000  Uiso   1.00
N285   N     0.82570   0.06110   0.17530   0.00000  Uiso   1.00
H286   H     0.86691   0.05592   0.20495   0.00000  Uiso   1.00
H287   H     0.83633   0.04456   0.12823   0.00000  Uiso   1.00
H288   H     0.78829   0.96810   0.19640   0.00000  Uiso   1.00
Zr289  Zr    0.36184   0.51057   0.48882   0.00000  Uiso   1.00
O290   O     0.28580   0.40830   0.48690   0.00000  Uiso   1.00
O291   O     0.37340   0.30880   0.50650   0.00000  Uiso   1.00
O292   O     0.30910   0.62850   0.47960   0.00000  Uiso   1.00
O293   O     0.41120   0.71430   0.47820   0.00000  Uiso   1.00
O294   O     0.44370   0.56920   0.41890   0.00000  Uiso   1.00
C295   C     0.31078   0.34199   0.49500   0.00000  Uiso   1.00
C296   C     0.24002   0.29200   0.49550   0.00000  Uiso   1.00
C297   C     0.34352   0.69117   0.47980   0.00000  Uiso   1.00
C298   C     0.29185   0.76052   0.48530   0.00000  Uiso   1.00
N299   N     0.18320   0.32200   0.43740   0.00000  Uiso   1.00
H300   H     0.13780   0.30002   0.44510   0.00000  Uiso   1.00
H301   H     0.19966   0.31101   0.39031   0.00000  Uiso   1.00
H302   H     0.20974   0.30361   0.54057   0.00000  Uiso   1.00
N303   N     0.32470   0.82570   0.43890   0.00000  Uiso   1.00
H304   H     0.29505   0.86691   0.44408   0.00000  Uiso   1.00
H305   H     0.37177   0.83633   0.45544   0.00000  Uiso   1.00
H306   H     0.30360   0.78829   0.53190   0.00000  Uiso   1.00
Zr307  Zr    0.36184   0.98943   0.01118   0.00000  Uiso   1.00
O308   O     0.28580   0.09170   0.01310   0.00000  Uiso   1.00
O309   O     0.37340   0.19120   0.99350   0.00000  Uiso   1.00
O310   O     0.30910   0.87150   0.02040   0.00000  Uiso   1.00
O311   O     0.41120   0.78570   0.02180   0.00000  Uiso   1.00
O312   O     0.44370   0.93080   0.08110   0.00000  Uiso   1.00
C313   C     0.31078   0.15801   0.00500   0.00000  Uiso   1.00
C314   C     0.24002   0.20800   0.00450   0.00000  Uiso   1.00
C315   C     0.34352   0.80883   0.02020   0.00000  Uiso   1.00
C316   C     0.29185   0.73948   0.01470   0.00000  Uiso   1.00
N317   N     0.18320   0.17800   0.06260   0.00000  Uiso   1.00
H318   H     0.13780   0.19998   0.05490   0.00000  Uiso   1.00
H319   H     0.19966   0.18899   0.10969   0.00000  Uiso   1.00
H320   H     0.20974   0.19639   0.95943   0.00000  Uiso   1.00
N321   N     0.32470   0.67430   0.06110   0.00000  Uiso   1.00
H322   H     0.29505   0.63309   0.05592   0.00000  Uiso   1.00
H323   H     0.37177   0.66367   0.04456   0.00000  Uiso   1.00
H324   H     0.30360   0.71171   0.96810   0.00000  Uiso   1.00
Zr325  Zr    0.13816   0.98943   0.48882   0.00000  Uiso   1.00
O326   O     0.21420   0.09170   0.48690   0.00000  Uiso   1.00
O327   O     0.12660   0.19120   0.50650   0.00000  Uiso   1.00
O328   O     0.19090   0.87150   0.47960   0.00000  Uiso   1.00
O329   O     0.08880   0.78570   0.47820   0.00000  Uiso   1.00
O330   O     0.05630   0.93080   0.41890   0.00000  Uiso   1.00
C331   C     0.18922   0.15801   0.49500   0.00000  Uiso   1.00
C332   C     0.25998   0.20800   0.49550   0.00000  Uiso   1.00
C333   C     0.15648   0.80883   0.47980   0.00000  Uiso   1.00
C334   C     0.20815   0.73948   0.48530   0.00000  Uiso   1.00
N335   N     0.31680   0.17800   0.43740   0.00000  Uiso   1.00
H336   H     0.36220   0.19998   0.44510   0.00000  Uiso   1.00
H337   H     0.30034   0.18899   0.39031   0.00000  Uiso   1.00
H338   H     0.29026   0.19639   0.54057   0.00000  Uiso   1.00
N339   N     0.17530   0.67430   0.43890   0.00000  Uiso   1.00
H340   H     0.20495   0.63309   0.44408   0.00000  Uiso   1.00
H341   H     0.12823   0.66367   0.45544   0.00000  Uiso   1.00
H342   H     0.19640   0.71171   0.53190   0.00000  Uiso   1.00
Zr343  Zr    0.13816   0.51057   0.01118   0.00000  Uiso   1.00
O344   O     0.21420   0.40830   0.01310   0.00000  Uiso   1.00
O345   O     0.12660   0.30880   0.99350   0.00000  Uiso   1.00
O346   O     0.19090   0.62850   0.02040   0.00000  Uiso   1.00
O347   O     0.08880   0.71430   0.02180   0.00000  Uiso   1.00
O348   O     0.05630   0.56920   0.08110   0.00000  Uiso   1.00
C349   C     0.18922   0.34199   0.00500   0.00000  Uiso   1.00
C350   C     0.25998   0.29200   0.00450   0.00000  Uiso   1.00
C351   C     0.15648   0.69117   0.02020   0.00000  Uiso   1.00
C352   C     0.20815   0.76052   0.01470   0.00000  Uiso   1.00
N353   N     0.31680   0.32200   0.06260   0.00000  Uiso   1.00
H354   H     0.36220   0.30002   0.05490   0.00000  Uiso   1.00
H355   H     0.30034   0.31101   0.10969   0.00000  Uiso   1.00
H356   H     0.29026   0.30361   0.95943   0.00000  Uiso   1.00
N357   N     0.17530   0.82570   0.06110   0.00000  Uiso   1.00
H358   H     0.20495   0.86691   0.05592   0.00000  Uiso   1.00
H359   H     0.12823   0.83633   0.04456   0.00000  Uiso   1.00
H360   H     0.19640   0.78829   0.96810   0.00000  Uiso   1.00
Zr361  Zr    0.48882   0.36184   0.51057   0.00000  Uiso   1.00
O362   O     0.48690   0.28580   0.40830   0.00000  Uiso   1.00
O363   O     0.50650   0.37340   0.30880   0.00000  Uiso   1.00
O364   O     0.47960   0.30910   0.62850   0.00000  Uiso   1.00
O365   O     0.47820   0.41120   0.71430   0.00000  Uiso   1.00
O366   O     0.41890   0.44370   0.56920   0.00000  Uiso   1.00
C367   C     0.49500   0.31078   0.34199   0.00000  Uiso   1.00
C368   C     0.49550   0.24002   0.29200   0.00000  Uiso   1.00
C369   C     0.47980   0.34352   0.69117   0.00000  Uiso   1.00
C370   C     0.48530   0.29185   0.76052   0.00000  Uiso   1.00
N371   N     0.43740   0.18320   0.32200   0.00000  Uiso   1.00
H372   H     0.44510   0.13780   0.30002   0.00000  Uiso   1.00
H373   H     0.39031   0.19966   0.31101   0.00000  Uiso   1.00
H374   H     0.54057   0.20974   0.30361   0.00000  Uiso   1.00
N375   N     0.43890   0.32470   0.82570   0.00000  Uiso   1.00
H376   H     0.44408   0.29505   0.86691   0.00000  Uiso   1.00
H377   H     0.45544   0.37177   0.83633   0.00000  Uiso   1.00
H378   H     0.53190   0.30360   0.78829   0.00000  Uiso   1.00
Zr379  Zr    0.01118   0.36184   0.98943   0.00000  Uiso   1.00
O380   O     0.01310   0.28580   0.09170   0.00000  Uiso   1.00
O381   O     0.99350   0.37340   0.19120   0.00000  Uiso   1.00
O382   O     0.02040   0.30910   0.87150   0.00000  Uiso   1.00
O383   O     0.02180   0.41120   0.78570   0.00000  Uiso   1.00
O384   O     0.08110   0.44370   0.93080   0.00000  Uiso   1.00
C385   C     0.00500   0.31078   0.15801   0.00000  Uiso   1.00
C386   C     0.00450   0.24002   0.20800   0.00000  Uiso   1.00
C387   C     0.02020   0.34352   0.80883   0.00000  Uiso   1.00
C388   C     0.01470   0.29185   0.73948   0.00000  Uiso   1.00
N389   N     0.06260   0.18320   0.17800   0.00000  Uiso   1.00
H390   H     0.05490   0.13780   0.19998   0.00000  Uiso   1.00
H391   H     0.10969   0.19966   0.18899   0.00000  Uiso   1.00
H392   H     0.95943   0.20974   0.19639   0.00000  Uiso   1.00
N393   N     0.06110   0.32470   0.67430   0.00000  Uiso   1.00
H394   H     0.05592   0.29505   0.63309   0.00000  Uiso   1.00
H395   H     0.04456   0.37177   0.66367   0.00000  Uiso   1.00
H396   H     0.96810   0.30360   0.71171   0.00000  Uiso   1.00
Zr397  Zr    0.48882   0.13816   0.98943   0.00000  Uiso   1.00
O398   O     0.48690   0.21420   0.09170   0.00000  Uiso   1.00
O399   O     0.50650   0.12660   0.19120   0.00000  Uiso   1.00
O400   O     0.47960   0.19090   0.87150   0.00000  Uiso   1.00
O401   O     0.47820   0.08880   0.78570   0.00000  Uiso   1.00
O402   O     0.41890   0.05630   0.93080   0.00000  Uiso   1.00
C403   C     0.49500   0.18922   0.15801   0.00000  Uiso   1.00
C404   C     0.49550   0.25998   0.20800   0.00000  Uiso   1.00
C405   C     0.47980   0.15648   0.80883   0.00000  Uiso   1.00
C406   C     0.48530   0.20815   0.73948   0.00000  Uiso   1.00
N407   N     0.43740   0.31680   0.17800   0.00000  Uiso   1.00
H408   H     0.44510   0.36220   0.19998   0.00000  Uiso   1.00
H409   H     0.39031   0.30034   0.18899   0.00000  Uiso   1.00
H410   H     0.54057   0.29026   0.19639   0.00000  Uiso   1.00
N411   N     0.43890   0.17530   0.67430   0.00000  Uiso   1.00
H412   H     0.44408   0.20495   0.63309   0.00000  Uiso   1.00
H413   H     0.45544   0.12823   0.66367   0.00000  Uiso   1.00
H414   H     0.53190   0.19640   0.71171   0.00000  Uiso   1.00
Zr415  Zr    0.01118   0.13816   0.51057   0.00000  Uiso   1.00
O416   O     0.01310   0.21420   0.40830   0.00000  Uiso   1.00
O417   O     0.99350   0.12660   0.30880   0.00000  Uiso   1.00
O418   O     0.02040   0.19090   0.62850   0.00000  Uiso   1.00
O419   O     0.02180   0.08880   0.71430   0.00000  Uiso   1.00
O420   O     0.08110   0.05630   0.56920   0.00000  Uiso   1.00
C421   C     0.00500   0.18922   0.34199   0.00000  Uiso   1.00
C422   C     0.00450   0.25998   0.29200   0.00000  Uiso   1.00
C423   C     0.02020   0.15648   0.69117   0.00000  Uiso   1.00
C424   C     0.01470   0.20815   0.76052   0.00000  Uiso   1.00
N425   N     0.06260   0.31680   0.32200   0.00000  Uiso   1.00
H426   H     0.05490   0.36220   0.30002   0.00000  Uiso   1.00
H427   H     0.10969   0.30034   0.31101   0.00000  Uiso   1.00
H428   H     0.95943   0.29026   0.30361   0.00000  Uiso   1.00
N429   N     0.06110   0.17530   0.82570   0.00000  Uiso   1.00
H430   H     0.05592   0.20495   0.86691   0.00000  Uiso   1.00
H431   H     0.04456   0.12823   0.83633   0.00000  Uiso   1.00
H432   H     0.96810   0.19640   0.78829   0.00000  Uiso   1.00
O433   O     0.56860   0.56860   0.56860   0.00000  Uiso   1.00
O434   O     0.93140   0.93140   0.56860   0.00000  Uiso   1.00
O435   O     0.93140   0.56860   0.93140   0.00000  Uiso   1.00
O436   O     0.56860   0.93140   0.93140   0.00000  Uiso   1.00
O437   O     0.43140   0.43140   0.43140   0.00000  Uiso   1.00
O438   O     0.06860   0.06860   0.43140   0.00000  Uiso   1.00
O439   O     0.06860   0.43140   0.06860   0.00000  Uiso   1.00
O440   O     0.43140   0.06860   0.06860   0.00000  Uiso   1.00
loop_
_geom_bond_atom_site_label_1
_geom_bond_atom_site_label_2
_geom_bond_distance
_geom_bond_site_symmetry_2
_ccdc_geom_bond_type
Zr1    O2      2.272   .     S
Zr1    O4      2.309   .     S
Zr1    O433    2.139   .     S
Zr1    O6      2.185   .     S
Zr1    O147    2.265   .     S
Zr1    O365    2.249   .     S
Zr1    O78     2.123   .     S
Zr1    O366    2.130   .     S
O2     C7      1.271   .     S
O3     C7      1.280   .     S
O3     Zr73    2.265   .     S
O4     C9      1.275   .     S
O5     C9      1.275   .     S
O5     Zr289   2.249   .     S
O6     Zr289   2.130   .     S
O6     Zr145   2.123   .     S
C7     C8      1.544   .     S
C8     N11     1.544   .     S
C8     H14     0.990   .     S
C8     C44     1.539   .     S
C9     C10     1.545   .     S
C10    N15     1.542   .     S
C10    H18     0.989   .     S
C10    C46     1.538   .     S
N11    H12     0.910   .     S
N11    H13     0.911   .     S
N15    H16     0.910   .     S
N15    H17     0.909   .     S
Zr19   O20     2.272   1_455 S
Zr19   O22     2.309   .     S
Zr19   O434    2.139   1_455 S
Zr19   O24     2.185   .     S
Zr19   O201    2.265   .     S
Zr19   O419    2.249   1_565 S
Zr19   O114    2.123   1_465 S
Zr19   O420    2.130   1_565 S
O20    Zr19    2.272   1_655 S
O20    C25     1.271   .     S
O21    C25     1.280   1_545 S
O21    Zr109   2.265   .     S
O22    C27     1.275   .     S
O23    C27     1.275   .     S
O23    Zr325   2.249   .     S
O24    Zr325   2.130   .     S
O24    Zr199   2.123   1_455 S
C25    O21     1.280   1_565 S
C25    C26     1.544   .     S
C26    N29     1.544   .     S
C26    H32     0.990   1_565 S
C26    C62     1.539   .     S
C27    C28     1.545   .     S
C28    N33     1.542   .     S
C28    H36     0.989   1_565 S
C28    C64     1.538   .     S
N29    H30     0.910   .     S
N29    H31     0.911   .     S
H32    C26     0.990   1_545 S
N33    H34     0.910   .     S
N33    H35     0.909   .     S
H36    C28     0.989   1_545 S
Zr37   O38     2.272   1_455 S
Zr37   O40     2.309   .     S
Zr37   O435    2.139   1_455 S
Zr37   O42     2.185   .     S
Zr37   O165    2.265   .     S
Zr37   O383    2.249   .     S
Zr37   O132    2.123   1_455 S
Zr37   O384    2.130   .     S
O38    Zr37    2.272   1_655 S
O38    C43     1.271   .     S
O39    C43     1.280   .     S
O39    Zr127   2.265   .     S
O40    C45     1.275   .     S
O41    C45     1.275   .     S
O41    Zr343   2.249   1_556 S
O42    Zr343   2.130   1_556 S
O42    Zr163   2.123   1_456 S
C43    C44     1.544   .     S
C44    N47     1.544   .     S
C44    H50     0.990   .     S
C45    C46     1.545   .     S
C46    N51     1.542   .     S
C46    H54     0.989   .     S
N47    H48     0.910   .     S
N47    H49     0.911   .     S
N51    H52     0.910   .     S
N51    H53     0.909   .     S
Zr55   O56     2.272   .     S
Zr55   O58     2.309   .     S
Zr55   O436    2.139   .     S
Zr55   O60     2.185   .     S
Zr55   O183    2.265   .     S
Zr55   O401    2.249   1_565 S
Zr55   O96     2.123   1_565 S
Zr55   O402    2.130   1_565 S
O56    C61     1.271   .     S
O57    C61     1.280   1_545 S
O57    Zr91    2.265   .     S
O58    C63     1.275   .     S
O59    C63     1.275   .     S
O59    Zr307   2.249   1_556 S
O60    Zr307   2.130   1_556 S
O60    Zr181   2.123   1_556 S
C61    O57     1.280   1_565 S
C61    C62     1.544   .     S
C62    N65     1.544   .     S
C62    H68     0.990   1_565 S
C63    C64     1.545   .     S
C64    N69     1.542   .     S
C64    H72     0.989   1_565 S
N65    H66     0.910   .     S
N65    H67     0.911   .     S
H68    C62     0.990   1_545 S
N69    H70     0.910   .     S
N69    H71     0.909   .     S
H72    C64     0.989   1_545 S
Zr73   O74     2.272   .     S
Zr73   O76     2.309   .     S
Zr73   O433    2.139   .     S
Zr73   O78     2.185   .     S
Zr73   O221    2.249   .     S
Zr73   O150    2.123   .     S
Zr73   O222    2.130   .     S
O74    C79     1.271   .     S
O75    C79     1.280   .     S
O75    Zr145   2.265   .     S
O76    C81     1.275   .     S
O77    C81     1.275   .     S
O77    Zr361   2.249   .     S
O78    Zr361   2.130   .     S
C79    C80     1.544   .     S
C80    N83     1.544   .     S
C80    H86     0.990   .     S
C80    C116    1.539   .     S
C81    C82     1.545   .     S
C82    N87     1.542   .     S
C82    H90     0.989   .     S
C82    C118    1.538   .     S
N83    H84     0.910   .     S
N83    H85     0.911   .     S
N87    H88     0.910   .     S
N87    H89     0.909   .     S
Zr91   O92     2.272   1_545 S
Zr91   O94     2.309   .     S
Zr91   O436    2.139   1_545 S
Zr91   O96     2.185   .     S
Zr91   O275    2.249   1_556 S
Zr91   O186    2.123   1_546 S
Zr91   O276    2.130   1_556 S
O92    Zr91    2.272   1_565 S
O92    C97     1.271   .     S
O93    C97     1.280   1_554 S
O93    Zr181   2.265   .     S
O94    C99     1.275   .     S
O95    C99     1.275   .     S
O95    Zr397   2.249   .     S
O96    Zr397   2.130   .     S
O96    Zr55    2.123   1_545 S
C97    O93     1.280   1_556 S
C97    C98     1.544   .     S
C98    N101    1.544   .     S
C98    H104    0.990   1_556 S
C98    C134    1.539   .     S
C99    C100    1.545   .     S
C100   N105    1.542   .     S
C100   H108    0.989   1_556 S
C100   C136    1.538   .     S
N101   H102    0.910   .     S
N101   H103    0.911   .     S
H104   C98     0.990   1_554 S
N105   H106    0.910   .     S
N105   H107    0.909   .     S
H108   C100    0.989   1_554 S
Zr109  O110    2.272   1_545 S
Zr109  O112    2.309   .     S
Zr109  O434    2.139   1_545 S
Zr109  O114    2.185   .     S
Zr109  O239    2.249   .     S
Zr109  O204    2.123   1_545 S
Zr109  O240    2.130   .     S
O110   Zr109   2.272   1_565 S
O110   C115    1.271   .     S
O111   C115    1.280   .     S
O111   Zr199   2.265   .     S
O112   C117    1.275   .     S
O113   C117    1.275   .     S
O113   Zr415   2.249   1_655 S
O114   Zr415   2.130   1_655 S
O114   Zr19    2.123   1_645 S
C115   C116    1.544   .     S
C116   N119    1.544   .     S
C116   H122    0.990   .     S
C117   C118    1.545   .     S
C118   N123    1.542   .     S
C118   H126    0.989   .     S
N119   H120    0.910   .     S
N119   H121    0.911   .     S
N123   H124    0.910   .     S
N123   H125    0.909   .     S
Zr127  O128    2.272   .     S
Zr127  O130    2.309   .     S
Zr127  O435    2.139   .     S
Zr127  O132    2.185   .     S
Zr127  O257    2.249   1_556 S
Zr127  O168    2.123   1_556 S
Zr127  O258    2.130   1_556 S
O128   C133    1.271   .     S
O129   C133    1.280   1_554 S
O129   Zr163   2.265   .     S
O130   C135    1.275   .     S
O131   C135    1.275   .     S
O131   Zr379   2.249   1_655 S
O132   Zr379   2.130   1_655 S
O132   Zr37    2.123   1_655 S
C133   O129    1.280   1_556 S
C133   C134    1.544   .     S
C134   N137    1.544   .     S
C134   H140    0.990   1_556 S
C135   C136    1.545   .     S
C136   N141    1.542   .     S
C136   H144    0.989   1_556 S
N137   H138    0.910   .     S
N137   H139    0.911   .     S
H140   C134    0.990   1_554 S
N141   H142    0.910   .     S
N141   H143    0.909   .     S
H144   C136    0.989   1_554 S
Zr145  O146    2.272   .     S
Zr145  O148    2.309   .     S
Zr145  O433    2.139   .     S
Zr145  O150    2.185   .     S
Zr145  O293    2.249   .     S
Zr145  O294    2.130   .     S
O146   C151    1.271   .     S
O147   C151    1.280   .     S
O148   C153    1.275   .     S
O149   C153    1.275   .     S
O149   Zr217   2.249   .     S
O150   Zr217   2.130   .     S
C151   C152    1.544   .     S
C152   N155    1.544   .     S
C152   H158    0.990   .     S
C152   C188    1.539   .     S
C153   C154    1.545   .     S
C154   N159    1.542   .     S
C154   H162    0.989   .     S
C154   C190    1.538   .     S
N155   H156    0.910   .     S
N155   H157    0.911   .     S
N159   H160    0.910   .     S
N159   H161    0.909   .     S
Zr163  O164    2.272   1_554 S
Zr163  O166    2.309   .     S
Zr163  O435    2.139   1_554 S
Zr163  O168    2.185   .     S
Zr163  O347    2.249   1_655 S
Zr163  O42     2.123   1_654 S
Zr163  O348    2.130   1_655 S
O164   Zr163   2.272   1_556 S
O164   C169    1.271   .     S
O165   C169    1.280   1_455 S
O166   C171    1.275   .     S
O167   C171    1.275   .     S
O167   Zr253   2.249   .     S
O168   Zr253   2.130   .     S
O168   Zr127   2.123   1_554 S
C169   O165    1.280   1_655 S
C169   C170    1.544   .     S
C170   N173    1.544   .     S
C170   H176    0.990   1_655 S
C170   C206    1.539   .     S
C171   C172    1.545   .     S
C172   N177    1.542   .     S
C172   H180    0.989   1_655 S
C172   C208    1.538   .     S
N173   H174    0.910   .     S
N173   H175    0.911   .     S
H176   C170    0.990   1_455 S
N177   H178    0.910   .     S
N177   H179    0.909   .     S
H180   C172    0.989   1_455 S
Zr181  O182    2.272   1_554 S
Zr181  O184    2.309   .     S
Zr181  O436    2.139   1_554 S
Zr181  O186    2.185   .     S
Zr181  O311    2.249   .     S
Zr181  O60     2.123   1_554 S
Zr181  O312    2.130   .     S
O182   Zr181   2.272   1_556 S
O182   C187    1.271   .     S
O183   C187    1.280   .     S
O184   C189    1.275   .     S
O185   C189    1.275   .     S
O185   Zr271   2.249   1_565 S
O186   Zr271   2.130   1_565 S
O186   Zr91    2.123   1_564 S
C187   C188    1.544   .     S
C188   N191    1.544   .     S
C188   H194    0.990   .     S
C189   C190    1.545   .     S
C190   N195    1.542   .     S
C190   H198    0.989   .     S
N191   H192    0.910   .     S
N191   H193    0.911   .     S
N195   H196    0.910   .     S
N195   H197    0.909   .     S
Zr199  O200    2.272   .     S
Zr199  O202    2.309   .     S
Zr199  O434    2.139   .     S
Zr199  O204    2.185   .     S
Zr199  O329    2.249   1_655 S
Zr199  O24     2.123   1_655 S
Zr199  O330    2.130   1_655 S
O200   C205    1.271   .     S
O201   C205    1.280   1_455 S
O202   C207    1.275   .     S
O203   C207    1.275   .     S
O203   Zr235   2.249   1_565 S
O204   Zr235   2.130   1_565 S
O204   Zr109   2.123   1_565 S
C205   O201    1.280   1_655 S
C205   C206    1.544   .     S
C206   N209    1.544   .     S
C206   H212    0.990   1_655 S
C207   C208    1.545   .     S
C208   N213    1.542   .     S
C208   H216    0.989   1_655 S
N209   H210    0.910   .     S
N209   H211    0.911   .     S
H212   C206    0.990   1_455 S
N213   H214    0.910   .     S
N213   H215    0.909   .     S
H216   C208    0.989   1_455 S
Zr217  O218    2.272   .     S
Zr217  O220    2.309   .     S
Zr217  O437    2.139   .     S
Zr217  O222    2.185   .     S
Zr217  O363    2.265   .     S
Zr217  O294    2.123   .     S
O218   C223    1.271   .     S
O219   C223    1.280   .     S
O219   Zr289   2.265   .     S
O220   C225    1.275   .     S
O221   C225    1.275   .     S
O222   Zr361   2.123   .     S
C223   C224    1.544   .     S
C224   N227    1.544   .     S
C224   H230    0.990   .     S
C224   C260    1.539   .     S
C225   C226    1.545   .     S
C226   N231    1.542   .     S
C226   H234    0.989   .     S
C226   C262    1.538   .     S
N227   H228    0.910   .     S
N227   H229    0.911   .     S
N231   H232    0.910   .     S
N231   H233    0.909   .     S
Zr235  O236    2.272   1_655 S
Zr235  O238    2.309   .     S
Zr235  O438    2.139   1_655 S
Zr235  O240    2.185   .     S
Zr235  O417    2.265   .     S
Zr235  O203    2.249   1_545 S
Zr235  O330    2.123   1_645 S
Zr235  O204    2.130   1_545 S
O236   Zr235   2.272   1_455 S
O236   C241    1.271   .     S
O237   C241    1.280   1_565 S
O237   Zr325   2.265   .     S
O238   C243    1.275   .     S
O239   C243    1.275   .     S
O240   Zr415   2.123   1_655 S
C241   O237    1.280   1_545 S
C241   C242    1.544   .     S
C242   N245    1.544   .     S
C242   H248    0.990   1_545 S
C242   C278    1.539   .     S
C243   C244    1.545   .     S
C244   N249    1.542   .     S
C244   H252    0.989   1_545 S
C244   C280    1.538   .     S
N245   H246    0.910   .     S
N245   H247    0.911   .     S
H248   C242    0.990   1_565 S
N249   H250    0.910   .     S
N249   H251    0.909   .     S
H252   C244    0.989   1_565 S
Zr253  O254    2.272   1_655 S
Zr253  O256    2.309   .     S
Zr253  O439    2.139   1_655 S
Zr253  O258    2.185   .     S
Zr253  O381    2.265   .     S
Zr253  O348    2.123   1_655 S
O254   Zr253   2.272   1_455 S
O254   C259    1.271   .     S
O255   C259    1.280   .     S
O255   Zr343   2.265   .     S
O256   C261    1.275   .     S
O257   C261    1.275   .     S
O257   Zr127   2.249   1_554 S
O258   Zr127   2.130   1_554 S
O258   Zr379   2.123   1_654 S
C259   C260    1.544   .     S
C260   N263    1.544   .     S
C260   H266    0.990   .     S
C261   C262    1.545   .     S
C262   N267    1.542   .     S
C262   H270    0.989   .     S
N263   H264    0.910   .     S
N263   H265    0.911   .     S
N267   H268    0.910   .     S
N267   H269    0.909   .     S
Zr271  O272    2.272   .     S
Zr271  O274    2.309   .     S
Zr271  O440    2.139   .     S
Zr271  O276    2.185   .     S
Zr271  O399    2.265   .     S
Zr271  O185    2.249   1_545 S
Zr271  O312    2.123   1_545 S
Zr271  O186    2.130   1_545 S
O272   C277    1.271   .     S
O273   C277    1.280   1_565 S
O273   Zr307   2.265   .     S
O274   C279    1.275   .     S
O275   C279    1.275   .     S
O275   Zr91    2.249   1_554 S
O276   Zr91    2.130   1_554 S
O276   Zr397   2.123   1_554 S
C277   O273    1.280   1_545 S
C277   C278    1.544   .     S
C278   N281    1.544   .     S
C278   H284    0.990   1_545 S
C279   C280    1.545   .     S
C280   N285    1.542   .     S
C280   H288    0.989   1_545 S
N281   H282    0.910   .     S
N281   H283    0.911   .     S
H284   C278    0.990   1_565 S
N285   H286    0.910   .     S
N285   H287    0.909   .     S
H288   C280    0.989   1_565 S
Zr289  O290    2.272   .     S
Zr289  O292    2.309   .     S
Zr289  O437    2.139   .     S
Zr289  O294    2.185   .     S
Zr289  O366    2.123   .     S
O290   C295    1.271   .     S
O291   C295    1.280   .     S
O291   Zr361   2.265   .     S
O292   C297    1.275   .     S
O293   C297    1.275   .     S
C295   C296    1.544   .     S
C296   N299    1.544   .     S
C296   H302    0.990   .     S
C296   C332    1.539   .     S
C297   C298    1.545   .     S
C298   N303    1.542   .     S
C298   H306    0.989   .     S
C298   C334    1.538   .     S
N299   H300    0.910   .     S
N299   H301    0.911   .     S
N303   H304    0.910   .     S
N303   H305    0.909   .     S
Zr307  O308    2.272   1_565 S
Zr307  O310    2.309   .     S
Zr307  O440    2.139   1_565 S
Zr307  O312    2.185   .     S
Zr307  O59     2.249   1_554 S
Zr307  O402    2.123   1_564 S
Zr307  O60     2.130   1_554 S
O308   Zr307   2.272   1_545 S
O308   C313    1.271   .     S
O309   C313    1.280   1_556 S
O309   Zr397   2.265   .     S
O310   C315    1.275   .     S
O311   C315    1.275   .     S
O312   Zr271   2.123   1_565 S
C313   O309    1.280   1_554 S
C313   C314    1.544   .     S
C314   N317    1.544   .     S
C314   H320    0.990   1_554 S
C314   C350    1.539   .     S
C315   C316    1.545   .     S
C316   N321    1.542   .     S
C316   H324    0.989   1_554 S
C316   C352    1.538   .     S
N317   H318    0.910   .     S
N317   H319    0.911   .     S
H320   C314    0.990   1_556 S
N321   H322    0.910   .     S
N321   H323    0.909   .     S
H324   C316    0.989   1_556 S
Zr325  O326    2.272   1_565 S
Zr325  O328    2.309   .     S
Zr325  O438    2.139   1_565 S
Zr325  O330    2.185   .     S
Zr325  O420    2.123   1_565 S
O326   Zr325   2.272   1_545 S
O326   C331    1.271   .     S
O327   C331    1.280   .     S
O327   Zr415   2.265   .     S
O328   C333    1.275   .     S
O329   C333    1.275   .     S
O329   Zr199   2.249   1_455 S
O330   Zr199   2.130   1_455 S
O330   Zr235   2.123   1_465 S
C331   C332    1.544   .     S
C332   N335    1.544   .     S
C332   H338    0.990   .     S
C333   C334    1.545   .     S
C334   N339    1.542   .     S
C334   H342    0.989   .     S
N335   H336    0.910   .     S
N335   H337    0.911   .     S
N339   H340    0.910   .     S
N339   H341    0.909   .     S
Zr343  O344    2.272   .     S
Zr343  O346    2.309   .     S
Zr343  O439    2.139   .     S
Zr343  O348    2.185   .     S
Zr343  O41     2.249   1_554 S
Zr343  O384    2.123   1_554 S
Zr343  O42     2.130   1_554 S
O344   C349    1.271   .     S
O345   C349    1.280   1_556 S
O345   Zr379   2.265   .     S
O346   C351    1.275   .     S
O347   C351    1.275   .     S
O347   Zr163   2.249   1_455 S
O348   Zr163   2.130   1_455 S
O348   Zr253   2.123   1_455 S
C349   O345    1.280   1_554 S
C349   C350    1.544   .     S
C350   N353    1.544   .     S
C350   H356    0.990   1_554 S
C351   C352    1.545   .     S
C352   N357    1.542   .     S
C352   H360    0.989   1_554 S
N353   H354    0.910   .     S
N353   H355    0.911   .     S
H356   C350    0.990   1_556 S
N357   H358    0.910   .     S
N357   H359    0.909   .     S
H360   C352    0.989   1_556 S
Zr361  O362    2.272   .     S
Zr361  O364    2.309   .     S
Zr361  O437    2.139   .     S
Zr361  O366    2.185   .     S
O362   C367    1.271   .     S
O363   C367    1.280   .     S
O364   C369    1.275   .     S
O365   C369    1.275   .     S
C367   C368    1.544   .     S
C368   N371    1.544   .     S
C368   H374    0.990   .     S
C368   C404    1.539   .     S
C369   C370    1.545   .     S
C370   N375    1.542   .     S
C370   H378    0.989   .     S
C370   C406    1.538   .     S
N371   H372    0.910   .     S
N371   H373    0.911   .     S
N375   H376    0.910   .     S
N375   H377    0.909   .     S
Zr379  O380    2.272   1_556 S
Zr379  O382    2.309   .     S
Zr379  O439    2.139   1_556 S
Zr379  O384    2.185   .     S
Zr379  O131    2.249   1_455 S
Zr379  O258    2.123   1_456 S
Zr379  O132    2.130   1_455 S
O380   Zr379   2.272   1_554 S
O380   C385    1.271   .     S
O381   C385    1.280   1_655 S
O382   C387    1.275   .     S
O383   C387    1.275   .     S
O384   Zr343   2.123   1_556 S
C385   O381    1.280   1_455 S
C385   C386    1.544   .     S
C386   N389    1.544   .     S
C386   H392    0.990   1_455 S
C386   C422    1.539   .     S
C387   C388    1.545   .     S
C388   N393    1.542   .     S
C388   H396    0.989   1_455 S
C388   C424    1.538   .     S
N389   H390    0.910   .     S
N389   H391    0.911   .     S
H392   C386    0.990   1_655 S
N393   H394    0.910   .     S
N393   H395    0.909   .     S
H396   C388    0.989   1_655 S
Zr397  O398    2.272   1_556 S
Zr397  O400    2.309   .     S
Zr397  O440    2.139   1_556 S
Zr397  O402    2.185   .     S
Zr397  O276    2.123   1_556 S
O398   Zr397   2.272   1_554 S
O398   C403    1.271   .     S
O399   C403    1.280   .     S
O400   C405    1.275   .     S
O401   C405    1.275   .     S
O401   Zr55    2.249   1_545 S
O402   Zr55    2.130   1_545 S
O402   Zr307   2.123   1_546 S
C403   C404    1.544   .     S
C404   N407    1.544   .     S
C404   H410    0.990   .     S
C405   C406    1.545   .     S
C406   N411    1.542   .     S
C406   H414    0.989   .     S
N407   H408    0.910   .     S
N407   H409    0.911   .     S
N411   H412    0.910   .     S
N411   H413    0.909   .     S
Zr415  O416    2.272   .     S
Zr415  O418    2.309   .     S
Zr415  O438    2.139   .     S
Zr415  O420    2.185   .     S
Zr415  O113    2.249   1_455 S
Zr415  O240    2.123   1_455 S
Zr415  O114    2.130   1_455 S
O416   C421    1.271   .     S
O417   C421    1.280   1_655 S
O418   C423    1.275   .     S
O419   C423    1.275   .     S
O419   Zr19    2.249   1_545 S
O420   Zr19    2.130   1_545 S
O420   Zr325   2.123   1_545 S
C421   O417    1.280   1_455 S
C421   C422    1.544   .     S
C422   N425    1.544   .     S
C422   H428    0.990   1_455 S
C423   C424    1.545   .     S
C424   N429    1.542   .     S
C424   H432    0.989   1_455 S
N425   H426    0.910   .     S
N425   H427    0.911   .     S
H428   C422    0.990   1_655 S
N429   H430    0.910   .     S
N429   H431    0.909   .     S
H432   C424    0.989   1_655 S
O434   Zr19    2.139   1_655 S
O434   Zr109   2.139   1_565 S
O435   Zr37    2.139   1_655 S
O435   Zr163   2.139   1_556 S
O436   Zr91    2.139   1_565 S
O436   Zr181   2.139   1_556 S
O438   Zr235   2.139   1_455 S
O438   Zr325   2.139   1_545 S
O439   Zr253   2.139   1_455 S
O439   Zr379   2.139   1_554 S
O440   Zr307   2.139   1_545 S
O440   Zr397   2.139   1_554 S
