data_ETUMIR_FSR
_audit_creation_date              2024-06-11
_audit_creation_method            'Materials Studio'
_symmetry_space_group_name_H-M    'P1'
_symmetry_Int_Tables_number       1
_symmetry_cell_setting            triclinic
loop_
_symmetry_equiv_pos_as_xyz
  x,y,z
_cell_length_a                    10.1426
_cell_length_b                    9.1395
_cell_length_c                    32.8815
_cell_angle_alpha                 90.0000
_cell_angle_beta                  90.0000
_cell_angle_gamma                 90.0000
loop_
_atom_site_label
_atom_site_type_symbol
_atom_site_fract_x
_atom_site_fract_y
_atom_site_fract_z
_atom_site_U_iso_or_equiv
_atom_site_adp_type
_atom_site_occupancy
Mg1    Mg    0.67908   0.99435   0.44217   0.02160  Uani   1.00
C2     C     0.39430   0.07080   0.41739   0.03023  Uani   1.00
C3     C     0.38680   0.10030   0.37258   0.03093  Uani   1.00
C4     C     0.48380   0.18040   0.35301   0.03383  Uani   1.00
H5     H     0.55150   0.22250   0.36810   0.04100  Uiso   1.00
C6     C     0.48070   0.19830   0.31121   0.03530  Uani   1.00
H7     H     0.54670   0.25230   0.29860   0.04200  Uiso   1.00
C8     C     0.38070   0.13710   0.28763   0.02970  Uani   1.00
C9     C     0.28160   0.05980   0.30796   0.04413  Uani   1.00
H10    H     0.21230   0.01990   0.29310   0.05300  Uiso   1.00
C11    C     0.28470   0.04170   0.34969   0.04327  Uani   1.00
H12    H     0.21780   0.98970   0.36250   0.05200  Uiso   1.00
C13    C     0.37940   0.15330   0.24268   0.02790  Uani   1.00
C14    C     0.44130   0.27160   0.22384   0.03277  Uani   1.00
H15    H     0.48990   0.33700   0.23950   0.03900  Uiso   1.00
C16    C     0.43150   0.29320   0.18230   0.03047  Uani   1.00
H17    H     0.47270   0.37340   0.17040   0.03700  Uiso   1.00
C18    C     0.36040   0.19600   0.15809   0.02437  Uani   1.00
C19    C     0.30550   0.07310   0.17619   0.03390  Uani   1.00
H20    H     0.26200   0.00430   0.16030   0.04100  Uiso   1.00
C21    C     0.31520   0.05210   0.21790   0.03597  Uani   1.00
H22    H     0.27820   0.96900   0.22950   0.04300  Uiso   1.00
C23    C     0.33370   0.23240   0.11441   0.02340  Uani   1.00
O24    O     0.29757   0.01270   0.43412   0.04770  Uani   1.00
O25    O     0.49873   0.10653   0.43659   0.02970  Uani   1.00
O26    O     0.27020   0.14389   0.09309   0.03810  Uani   1.00
O27    O     0.37351   0.35460   0.10208   0.02980  Uani   1.00
O28    O     0.59399   0.84214   0.48429   0.02693  Uani   1.00
H29    H     0.57410   0.82630   0.50900   0.03200  Uiso   1.00
H30    H     0.51610   0.79760   0.47630   0.03200  Uiso   1.00
O31    O     0.71458   0.11698   0.49339   0.02920  Uani   1.00
H32    H     0.74440   0.20330   0.49620   0.03500  Uiso   1.00
H33    H     0.69100   0.08680   0.51670   0.03500  Uiso   1.00
O34    O     0.86863   0.89989   0.45065   0.03863  Uani   1.00
H35    H     0.91440   0.83870   0.43720   0.04600  Uiso   1.00
H36    H     0.89700   0.89990   0.47500   0.04600  Uiso   1.00
Mg37   Mg    0.82092   0.00565   0.94217   0.02160  Uani   1.00
C38    C     0.10570   0.92920   0.91739   0.03023  Uani   1.00
C39    C     0.11320   0.89970   0.87258   0.03093  Uani   1.00
C40    C     0.01620   0.81960   0.85301   0.03383  Uani   1.00
H41    H     0.94850   0.77750   0.86810   0.04100  Uiso   1.00
C42    C     0.01930   0.80170   0.81121   0.03530  Uani   1.00
H43    H     0.95330   0.74770   0.79860   0.04200  Uiso   1.00
C44    C     0.11930   0.86290   0.78763   0.02970  Uani   1.00
C45    C     0.21840   0.94020   0.80796   0.04413  Uani   1.00
H46    H     0.28770   0.98010   0.79310   0.05300  Uiso   1.00
C47    C     0.21530   0.95830   0.84969   0.04327  Uani   1.00
H48    H     0.28220   0.01030   0.86250   0.05200  Uiso   1.00
C49    C     0.12060   0.84670   0.74268   0.02790  Uani   1.00
C50    C     0.05870   0.72840   0.72384   0.03277  Uani   1.00
H51    H     0.01010   0.66300   0.73950   0.03900  Uiso   1.00
C52    C     0.06850   0.70680   0.68230   0.03047  Uani   1.00
H53    H     0.02730   0.62660   0.67040   0.03700  Uiso   1.00
C54    C     0.13960   0.80400   0.65809   0.02437  Uani   1.00
C55    C     0.19450   0.92690   0.67619   0.03390  Uani   1.00
H56    H     0.23800   0.99570   0.66030   0.04100  Uiso   1.00
C57    C     0.18480   0.94790   0.71790   0.03597  Uani   1.00
H58    H     0.22180   0.03100   0.72950   0.04300  Uiso   1.00
C59    C     0.16630   0.76760   0.61441   0.02340  Uani   1.00
O60    O     0.20243   0.98730   0.93412   0.04770  Uani   1.00
O61    O     0.00127   0.89347   0.93659   0.02970  Uani   1.00
O62    O     0.22980   0.85611   0.59309   0.03810  Uani   1.00
O63    O     0.12649   0.64540   0.60208   0.02980  Uani   1.00
O64    O     0.90601   0.15786   0.98429   0.02693  Uani   1.00
H65    H     0.92590   0.17370   1.00900   0.03200  Uiso   1.00
H66    H     0.98390   0.20240   0.97630   0.03200  Uiso   1.00
O67    O     0.78542   0.88302   0.99339   0.02920  Uani   1.00
H68    H     0.75560   0.79670   0.99620   0.03500  Uiso   1.00
H69    H     0.80900   0.91320   1.01670   0.03500  Uiso   1.00
O70    O     0.63137   0.10011   0.95065   0.03863  Uani   1.00
H71    H     0.58560   0.16130   0.93720   0.04600  Uiso   1.00
H72    H     0.60300   0.10010   0.97500   0.04600  Uiso   1.00
Mg73   Mg    0.32092   0.49435   0.05783   0.02160  Uani   1.00
C74    C     0.60570   0.57080   0.08261   0.03023  Uani   1.00
C75    C     0.61320   0.60030   0.12742   0.03093  Uani   1.00
C76    C     0.51620   0.68040   0.14699   0.03383  Uani   1.00
H77    H     0.44850   0.72250   0.13190   0.04100  Uiso   1.00
C78    C     0.51930   0.69830   0.18879   0.03530  Uani   1.00
H79    H     0.45330   0.75230   0.20140   0.04200  Uiso   1.00
C80    C     0.61930   0.63710   0.21237   0.02970  Uani   1.00
C81    C     0.71840   0.55980   0.19204   0.04413  Uani   1.00
H82    H     0.78770   0.51990   0.20690   0.05300  Uiso   1.00
C83    C     0.71530   0.54170   0.15031   0.04327  Uani   1.00
H84    H     0.78220   0.48970   0.13750   0.05200  Uiso   1.00
C85    C     0.62060   0.65330   0.25732   0.02790  Uani   1.00
C86    C     0.55870   0.77160   0.27616   0.03277  Uani   1.00
H87    H     0.51010   0.83700   0.26050   0.03900  Uiso   1.00
C88    C     0.56850   0.79320   0.31770   0.03047  Uani   1.00
H89    H     0.52730   0.87340   0.32960   0.03700  Uiso   1.00
C90    C     0.63960   0.69600   0.34191   0.02437  Uani   1.00
C91    C     0.69450   0.57310   0.32381   0.03390  Uani   1.00
H92    H     0.73800   0.50430   0.33970   0.04100  Uiso   1.00
C93    C     0.68480   0.55210   0.28210   0.03597  Uani   1.00
H94    H     0.72180   0.46900   0.27050   0.04300  Uiso   1.00
C95    C     0.66630   0.73240   0.38559   0.02340  Uani   1.00
O96    O     0.70243   0.51270   0.06588   0.04770  Uani   1.00
O97    O     0.50127   0.60653   0.06341   0.02970  Uani   1.00
O98    O     0.72980   0.64389   0.40691   0.03810  Uani   1.00
O99    O     0.62649   0.85460   0.39792   0.02980  Uani   1.00
O100   O     0.40601   0.34214   0.01571   0.02693  Uani   1.00
H101   H     0.42590   0.32630  -0.00900   0.03200  Uiso   1.00
H102   H     0.48390   0.29760   0.02370   0.03200  Uiso   1.00
O103   O     0.28542   0.61698   0.00661   0.02920  Uani   1.00
H104   H     0.25560   0.70330   0.00380   0.03500  Uiso   1.00
H105   H     0.30900   0.58680  -0.01670   0.03500  Uiso   1.00
O106   O     0.13137   0.39989   0.04935   0.03863  Uani   1.00
H107   H     0.08560   0.33870   0.06280   0.04600  Uiso   1.00
H108   H     0.10300   0.39990   0.02500   0.04600  Uiso   1.00
Mg109  Mg    0.17908   0.50565   0.55783   0.02160  Uani   1.00
C110   C     0.89430   0.42920   0.58261   0.03023  Uani   1.00
C111   C     0.88680   0.39970   0.62742   0.03093  Uani   1.00
C112   C     0.98380   0.31960   0.64699   0.03383  Uani   1.00
H113   H     0.05150   0.27750   0.63190   0.04100  Uiso   1.00
C114   C     0.98070   0.30170   0.68879   0.03530  Uani   1.00
H115   H     0.04670   0.24770   0.70140   0.04200  Uiso   1.00
C116   C     0.88070   0.36290   0.71237   0.02970  Uani   1.00
C117   C     0.78160   0.44020   0.69204   0.04413  Uani   1.00
H118   H     0.71230   0.48010   0.70690   0.05300  Uiso   1.00
C119   C     0.78470   0.45830   0.65031   0.04327  Uani   1.00
H120   H     0.71780   0.51030   0.63750   0.05200  Uiso   1.00
C121   C     0.87940   0.34670   0.75732   0.02790  Uani   1.00
C122   C     0.94130   0.22840   0.77616   0.03277  Uani   1.00
H123   H     0.98990   0.16300   0.76050   0.03900  Uiso   1.00
C124   C     0.93150   0.20680   0.81770   0.03047  Uani   1.00
H125   H     0.97270   0.12660   0.82960   0.03700  Uiso   1.00
C126   C     0.86040   0.30400   0.84191   0.02437  Uani   1.00
C127   C     0.80550   0.42690   0.82381   0.03390  Uani   1.00
H128   H     0.76200   0.49570   0.83970   0.04100  Uiso   1.00
C129   C     0.81520   0.44790   0.78210   0.03597  Uani   1.00
H130   H     0.77820   0.53100   0.77050   0.04300  Uiso   1.00
C131   C     0.83370   0.26760   0.88559   0.02340  Uani   1.00
O132   O     0.79757   0.48730   0.56588   0.04770  Uani   1.00
O133   O     0.99873   0.39347   0.56341   0.02970  Uani   1.00
O134   O     0.77020   0.35611   0.90691   0.03810  Uani   1.00
O135   O     0.87351   0.14540   0.89792   0.02980  Uani   1.00
O136   O     0.09399   0.65786   0.51571   0.02693  Uani   1.00
H137   H     0.07410   0.67370   0.49100   0.03200  Uiso   1.00
H138   H     0.01610   0.70240   0.52370   0.03200  Uiso   1.00
O139   O     0.21458   0.38302   0.50661   0.02920  Uani   1.00
H140   H     0.24440   0.29670   0.50380   0.03500  Uiso   1.00
H141   H     0.19100   0.41320   0.48330   0.03500  Uiso   1.00
O142   O     0.36863   0.60011   0.54935   0.03863  Uani   1.00
H143   H     0.41440   0.66130   0.56280   0.04600  Uiso   1.00
H144   H     0.39700   0.60010   0.52500   0.04600  Uiso   1.00
Mg145  Mg    0.32092   0.00565   0.55783   0.02160  Uani   1.00
C146   C     0.60570   0.92920   0.58261   0.03023  Uani   1.00
C147   C     0.61320   0.89970   0.62742   0.03093  Uani   1.00
C148   C     0.51620   0.81960   0.64699   0.03383  Uani   1.00
H149   H     0.44850   0.77750   0.63190   0.04100  Uiso   1.00
C150   C     0.51930   0.80170   0.68879   0.03530  Uani   1.00
H151   H     0.45330   0.74770   0.70140   0.04200  Uiso   1.00
C152   C     0.61930   0.86290   0.71237   0.02970  Uani   1.00
C153   C     0.71840   0.94020   0.69204   0.04413  Uani   1.00
H154   H     0.78770   0.98010   0.70690   0.05300  Uiso   1.00
C155   C     0.71530   0.95830   0.65031   0.04327  Uani   1.00
H156   H     0.78220   0.01030   0.63750   0.05200  Uiso   1.00
C157   C     0.62060   0.84670   0.75732   0.02790  Uani   1.00
C158   C     0.55870   0.72840   0.77616   0.03277  Uani   1.00
H159   H     0.51010   0.66300   0.76050   0.03900  Uiso   1.00
C160   C     0.56850   0.70680   0.81770   0.03047  Uani   1.00
H161   H     0.52730   0.62660   0.82960   0.03700  Uiso   1.00
C162   C     0.63960   0.80400   0.84191   0.02437  Uani   1.00
C163   C     0.69450   0.92690   0.82381   0.03390  Uani   1.00
H164   H     0.73800   0.99570   0.83970   0.04100  Uiso   1.00
C165   C     0.68480   0.94790   0.78210   0.03597  Uani   1.00
H166   H     0.72180   0.03100   0.77050   0.04300  Uiso   1.00
C167   C     0.66630   0.76760   0.88559   0.02340  Uani   1.00
O168   O     0.70243   0.98730   0.56588   0.04770  Uani   1.00
O169   O     0.50127   0.89347   0.56341   0.02970  Uani   1.00
O170   O     0.72980   0.85611   0.90691   0.03810  Uani   1.00
O171   O     0.62649   0.64540   0.89792   0.02980  Uani   1.00
O172   O     0.40601   0.15786   0.51571   0.02693  Uani   1.00
H173   H     0.42590   0.17370   0.49100   0.03200  Uiso   1.00
H174   H     0.48390   0.20240   0.52370   0.03200  Uiso   1.00
O175   O     0.28542   0.88302   0.50661   0.02920  Uani   1.00
H176   H     0.25560   0.79670   0.50380   0.03500  Uiso   1.00
H177   H     0.30900   0.91320   0.48330   0.03500  Uiso   1.00
O178   O     0.13137   0.10011   0.54935   0.03863  Uani   1.00
H179   H     0.08560   0.16130   0.56280   0.04600  Uiso   1.00
H180   H     0.10300   0.10010   0.52500   0.04600  Uiso   1.00
Mg181  Mg    0.17908   0.99435   0.05783   0.02160  Uani   1.00
C182   C     0.89430   0.07080   0.08261   0.03023  Uani   1.00
C183   C     0.88680   0.10030   0.12742   0.03093  Uani   1.00
C184   C     0.98380   0.18040   0.14699   0.03383  Uani   1.00
H185   H     0.05150   0.22250   0.13190   0.04100  Uiso   1.00
C186   C     0.98070   0.19830   0.18879   0.03530  Uani   1.00
H187   H     0.04670   0.25230   0.20140   0.04200  Uiso   1.00
C188   C     0.88070   0.13710   0.21237   0.02970  Uani   1.00
C189   C     0.78160   0.05980   0.19204   0.04413  Uani   1.00
H190   H     0.71230   0.01990   0.20690   0.05300  Uiso   1.00
C191   C     0.78470   0.04170   0.15031   0.04327  Uani   1.00
H192   H     0.71780   0.98970   0.13750   0.05200  Uiso   1.00
C193   C     0.87940   0.15330   0.25732   0.02790  Uani   1.00
C194   C     0.94130   0.27160   0.27616   0.03277  Uani   1.00
H195   H     0.98990   0.33700   0.26050   0.03900  Uiso   1.00
C196   C     0.93150   0.29320   0.31770   0.03047  Uani   1.00
H197   H     0.97270   0.37340   0.32960   0.03700  Uiso   1.00
C198   C     0.86040   0.19600   0.34191   0.02437  Uani   1.00
C199   C     0.80550   0.07310   0.32381   0.03390  Uani   1.00
H200   H     0.76200   0.00430   0.33970   0.04100  Uiso   1.00
C201   C     0.81520   0.05210   0.28210   0.03597  Uani   1.00
H202   H     0.77820   0.96900   0.27050   0.04300  Uiso   1.00
C203   C     0.83370   0.23240   0.38559   0.02340  Uani   1.00
O204   O     0.79757   0.01270   0.06588   0.04770  Uani   1.00
O205   O     0.99873   0.10653   0.06341   0.02970  Uani   1.00
O206   O     0.77020   0.14389   0.40691   0.03810  Uani   1.00
O207   O     0.87351   0.35460   0.39792   0.02980  Uani   1.00
O208   O     0.09399   0.84214   0.01571   0.02693  Uani   1.00
H209   H     0.07410   0.82630  -0.00900   0.03200  Uiso   1.00
H210   H     0.01610   0.79760   0.02370   0.03200  Uiso   1.00
O211   O     0.21458   0.11698   0.00661   0.02920  Uani   1.00
H212   H     0.24440   0.20330   0.00380   0.03500  Uiso   1.00
H213   H     0.19100   0.08680  -0.01670   0.03500  Uiso   1.00
O214   O     0.36863   0.89989   0.04935   0.03863  Uani   1.00
H215   H     0.41440   0.83870   0.06280   0.04600  Uiso   1.00
H216   H     0.39700   0.89990   0.02500   0.04600  Uiso   1.00
Mg217  Mg    0.67908   0.50565   0.94217   0.02160  Uani   1.00
C218   C     0.39430   0.42920   0.91739   0.03023  Uani   1.00
C219   C     0.38680   0.39970   0.87258   0.03093  Uani   1.00
C220   C     0.48380   0.31960   0.85301   0.03383  Uani   1.00
H221   H     0.55150   0.27750   0.86810   0.04100  Uiso   1.00
C222   C     0.48070   0.30170   0.81121   0.03530  Uani   1.00
H223   H     0.54670   0.24770   0.79860   0.04200  Uiso   1.00
C224   C     0.38070   0.36290   0.78763   0.02970  Uani   1.00
C225   C     0.28160   0.44020   0.80796   0.04413  Uani   1.00
H226   H     0.21230   0.48010   0.79310   0.05300  Uiso   1.00
C227   C     0.28470   0.45830   0.84969   0.04327  Uani   1.00
H228   H     0.21780   0.51030   0.86250   0.05200  Uiso   1.00
C229   C     0.37940   0.34670   0.74268   0.02790  Uani   1.00
C230   C     0.44130   0.22840   0.72384   0.03277  Uani   1.00
H231   H     0.48990   0.16300   0.73950   0.03900  Uiso   1.00
C232   C     0.43150   0.20680   0.68230   0.03047  Uani   1.00
H233   H     0.47270   0.12660   0.67040   0.03700  Uiso   1.00
C234   C     0.36040   0.30400   0.65809   0.02437  Uani   1.00
C235   C     0.30550   0.42690   0.67619   0.03390  Uani   1.00
H236   H     0.26200   0.49570   0.66030   0.04100  Uiso   1.00
C237   C     0.31520   0.44790   0.71790   0.03597  Uani   1.00
H238   H     0.27820   0.53100   0.72950   0.04300  Uiso   1.00
C239   C     0.33370   0.26760   0.61441   0.02340  Uani   1.00
O240   O     0.29757   0.48730   0.93412   0.04770  Uani   1.00
O241   O     0.49873   0.39347   0.93659   0.02970  Uani   1.00
O242   O     0.27020   0.35611   0.59309   0.03810  Uani   1.00
O243   O     0.37351   0.14540   0.60208   0.02980  Uani   1.00
O244   O     0.59399   0.65786   0.98429   0.02693  Uani   1.00
H245   H     0.57410   0.67370   1.00900   0.03200  Uiso   1.00
H246   H     0.51610   0.70240   0.97630   0.03200  Uiso   1.00
O247   O     0.71458   0.38302   0.99339   0.02920  Uani   1.00
H248   H     0.74440   0.29670   0.99620   0.03500  Uiso   1.00
H249   H     0.69100   0.41320   1.01670   0.03500  Uiso   1.00
O250   O     0.86863   0.60011   0.95065   0.03863  Uani   1.00
H251   H     0.91440   0.66130   0.93720   0.04600  Uiso   1.00
H252   H     0.89700   0.60010   0.97500   0.04600  Uiso   1.00
Mg253  Mg    0.82092   0.49435   0.44217   0.02160  Uani   1.00
C254   C     0.10570   0.57080   0.41739   0.03023  Uani   1.00
C255   C     0.11320   0.60030   0.37258   0.03093  Uani   1.00
C256   C     0.01620   0.68040   0.35301   0.03383  Uani   1.00
H257   H     0.94850   0.72250   0.36810   0.04100  Uiso   1.00
C258   C     0.01930   0.69830   0.31121   0.03530  Uani   1.00
H259   H     0.95330   0.75230   0.29860   0.04200  Uiso   1.00
C260   C     0.11930   0.63710   0.28763   0.02970  Uani   1.00
C261   C     0.21840   0.55980   0.30796   0.04413  Uani   1.00
H262   H     0.28770   0.51990   0.29310   0.05300  Uiso   1.00
C263   C     0.21530   0.54170   0.34969   0.04327  Uani   1.00
H264   H     0.28220   0.48970   0.36250   0.05200  Uiso   1.00
C265   C     0.12060   0.65330   0.24268   0.02790  Uani   1.00
C266   C     0.05870   0.77160   0.22384   0.03277  Uani   1.00
H267   H     0.01010   0.83700   0.23950   0.03900  Uiso   1.00
C268   C     0.06850   0.79320   0.18230   0.03047  Uani   1.00
H269   H     0.02730   0.87340   0.17040   0.03700  Uiso   1.00
C270   C     0.13960   0.69600   0.15809   0.02437  Uani   1.00
C271   C     0.19450   0.57310   0.17619   0.03390  Uani   1.00
H272   H     0.23800   0.50430   0.16030   0.04100  Uiso   1.00
C273   C     0.18480   0.55210   0.21790   0.03597  Uani   1.00
H274   H     0.22180   0.46900   0.22950   0.04300  Uiso   1.00
C275   C     0.16630   0.73240   0.11441   0.02340  Uani   1.00
O276   O     0.20243   0.51270   0.43412   0.04770  Uani   1.00
O277   O     0.00127   0.60653   0.43659   0.02970  Uani   1.00
O278   O     0.22980   0.64389   0.09309   0.03810  Uani   1.00
O279   O     0.12649   0.85460   0.10208   0.02980  Uani   1.00
O280   O     0.90601   0.34214   0.48429   0.02693  Uani   1.00
H281   H     0.92590   0.32630   0.50900   0.03200  Uiso   1.00
H282   H     0.98390   0.29760   0.47630   0.03200  Uiso   1.00
O283   O     0.78542   0.61698   0.49339   0.02920  Uani   1.00
H284   H     0.75560   0.70330   0.49620   0.03500  Uiso   1.00
H285   H     0.80900   0.58680   0.51670   0.03500  Uiso   1.00
O286   O     0.63137   0.39989   0.45065   0.03863  Uani   1.00
H287   H     0.58560   0.33870   0.43720   0.04600  Uiso   1.00
H288   H     0.60300   0.39990   0.47500   0.04600  Uiso   1.00
loop_
_atom_site_aniso_label
_atom_site_aniso_U_11
_atom_site_aniso_U_22
_atom_site_aniso_U_33
_atom_site_aniso_U_12
_atom_site_aniso_U_13
_atom_site_aniso_U_23
Mg1       0.02880   0.02230   0.01370   0.00010   0.00080  -0.00030
C2        0.03340   0.04080   0.01650   0.00900   0.00080   0.00330
C3        0.03260   0.04330   0.01690   0.00630  -0.00160   0.00360
C4        0.03910   0.04340   0.01900  -0.00480  -0.00570   0.00330
C6        0.04080   0.04440   0.02070  -0.00770  -0.00340   0.00780
C8        0.03630   0.03690   0.01590   0.00180  -0.00230   0.00450
C9        0.03910   0.06940   0.02390  -0.01430  -0.00780   0.00760
C11       0.03840   0.07090   0.02050  -0.01250  -0.00110   0.00930
C13       0.03330   0.03340   0.01700   0.00180  -0.00480   0.00390
C14       0.04400   0.03600   0.01830  -0.00830  -0.00810   0.00030
C16       0.04160   0.03040   0.01940  -0.00820  -0.00440   0.00480
C18       0.03350   0.02380   0.01580   0.00180  -0.00320   0.00190
C19       0.05270   0.02870   0.02030  -0.00870  -0.00680   0.00190
C21       0.05350   0.03310   0.02130  -0.01090  -0.00610   0.00950
C23       0.03050   0.02460   0.01510   0.00170  -0.00160  -0.00080
O24       0.03740   0.08330   0.02240  -0.00370   0.00040   0.01560
O25       0.03510   0.03830   0.01570   0.00920  -0.00220  -0.00140
O26       0.05820   0.03550   0.02060  -0.01380  -0.00840  -0.00190
O27       0.04480   0.02820   0.01640  -0.00490  -0.00470   0.00490
O28       0.03140   0.03070   0.01870  -0.00200   0.00350   0.00130
O31       0.04200   0.02860   0.01700  -0.00760  -0.00010  -0.00040
O34       0.03290   0.03330   0.04970   0.00160   0.00150  -0.00790
Mg37      0.02880   0.02230   0.01370   0.00010  -0.00080   0.00030
C38       0.03340   0.04080   0.01650   0.00900  -0.00080  -0.00330
C39       0.03260   0.04330   0.01690   0.00630   0.00160  -0.00360
C40       0.03910   0.04340   0.01900  -0.00480   0.00570  -0.00330
C42       0.04080   0.04440   0.02070  -0.00770   0.00340  -0.00780
C44       0.03630   0.03690   0.01590   0.00180   0.00230  -0.00450
C45       0.03910   0.06940   0.02390  -0.01430   0.00780  -0.00760
C47       0.03840   0.07090   0.02050  -0.01250   0.00110  -0.00930
C49       0.03330   0.03340   0.01700   0.00180   0.00480  -0.00390
C50       0.04400   0.03600   0.01830  -0.00830   0.00810  -0.00030
C52       0.04160   0.03040   0.01940  -0.00820   0.00440  -0.00480
C54       0.03350   0.02380   0.01580   0.00180   0.00320  -0.00190
C55       0.05270   0.02870   0.02030  -0.00870   0.00680  -0.00190
C57       0.05350   0.03310   0.02130  -0.01090   0.00610  -0.00950
C59       0.03050   0.02460   0.01510   0.00170   0.00160   0.00080
O60       0.03740   0.08330   0.02240  -0.00370  -0.00040  -0.01560
O61       0.03510   0.03830   0.01570   0.00920   0.00220   0.00140
O62       0.05820   0.03550   0.02060  -0.01380   0.00840   0.00190
O63       0.04480   0.02820   0.01640  -0.00490   0.00470  -0.00490
O64       0.03140   0.03070   0.01870  -0.00200  -0.00350  -0.00130
O67       0.04200   0.02860   0.01700  -0.00760   0.00010   0.00040
O70       0.03290   0.03330   0.04970   0.00160  -0.00150   0.00790
Mg73      0.02880   0.02230   0.01370  -0.00010   0.00080   0.00030
C74       0.03340   0.04080   0.01650  -0.00900   0.00080  -0.00330
C75       0.03260   0.04330   0.01690  -0.00630  -0.00160  -0.00360
C76       0.03910   0.04340   0.01900   0.00480  -0.00570  -0.00330
C78       0.04080   0.04440   0.02070   0.00770  -0.00340  -0.00780
C80       0.03630   0.03690   0.01590  -0.00180  -0.00230  -0.00450
C81       0.03910   0.06940   0.02390   0.01430  -0.00780  -0.00760
C83       0.03840   0.07090   0.02050   0.01250  -0.00110  -0.00930
C85       0.03330   0.03340   0.01700  -0.00180  -0.00480  -0.00390
C86       0.04400   0.03600   0.01830   0.00830  -0.00810  -0.00030
C88       0.04160   0.03040   0.01940   0.00820  -0.00440  -0.00480
C90       0.03350   0.02380   0.01580  -0.00180  -0.00320  -0.00190
C91       0.05270   0.02870   0.02030   0.00870  -0.00680  -0.00190
C93       0.05350   0.03310   0.02130   0.01090  -0.00610  -0.00950
C95       0.03050   0.02460   0.01510  -0.00170  -0.00160   0.00080
O96       0.03740   0.08330   0.02240   0.00370   0.00040  -0.01560
O97       0.03510   0.03830   0.01570  -0.00920  -0.00220   0.00140
O98       0.05820   0.03550   0.02060   0.01380  -0.00840   0.00190
O99       0.04480   0.02820   0.01640   0.00490  -0.00470  -0.00490
O100      0.03140   0.03070   0.01870   0.00200   0.00350  -0.00130
O103      0.04200   0.02860   0.01700   0.00760  -0.00010   0.00040
O106      0.03290   0.03330   0.04970  -0.00160   0.00150   0.00790
Mg109     0.02880   0.02230   0.01370  -0.00010  -0.00080  -0.00030
C110      0.03340   0.04080   0.01650  -0.00900  -0.00080   0.00330
C111      0.03260   0.04330   0.01690  -0.00630   0.00160   0.00360
C112      0.03910   0.04340   0.01900   0.00480   0.00570   0.00330
C114      0.04080   0.04440   0.02070   0.00770   0.00340   0.00780
C116      0.03630   0.03690   0.01590  -0.00180   0.00230   0.00450
C117      0.03910   0.06940   0.02390   0.01430   0.00780   0.00760
C119      0.03840   0.07090   0.02050   0.01250   0.00110   0.00930
C121      0.03330   0.03340   0.01700  -0.00180   0.00480   0.00390
C122      0.04400   0.03600   0.01830   0.00830   0.00810   0.00030
C124      0.04160   0.03040   0.01940   0.00820   0.00440   0.00480
C126      0.03350   0.02380   0.01580  -0.00180   0.00320   0.00190
C127      0.05270   0.02870   0.02030   0.00870   0.00680   0.00190
C129      0.05350   0.03310   0.02130   0.01090   0.00610   0.00950
C131      0.03050   0.02460   0.01510  -0.00170   0.00160  -0.00080
O132      0.03740   0.08330   0.02240   0.00370  -0.00040   0.01560
O133      0.03510   0.03830   0.01570  -0.00920   0.00220  -0.00140
O134      0.05820   0.03550   0.02060   0.01380   0.00840  -0.00190
O135      0.04480   0.02820   0.01640   0.00490   0.00470   0.00490
O136      0.03140   0.03070   0.01870   0.00200  -0.00350   0.00130
O139      0.04200   0.02860   0.01700   0.00760   0.00010  -0.00040
O142      0.03290   0.03330   0.04970  -0.00160  -0.00150  -0.00790
Mg145     0.02880   0.02230   0.01370   0.00010   0.00080  -0.00030
C146      0.03340   0.04080   0.01650   0.00900   0.00080   0.00330
C147      0.03260   0.04330   0.01690   0.00630  -0.00160   0.00360
C148      0.03910   0.04340   0.01900  -0.00480  -0.00570   0.00330
C150      0.04080   0.04440   0.02070  -0.00770  -0.00340   0.00780
C152      0.03630   0.03690   0.01590   0.00180  -0.00230   0.00450
C153      0.03910   0.06940   0.02390  -0.01430  -0.00780   0.00760
C155      0.03840   0.07090   0.02050  -0.01250  -0.00110   0.00930
C157      0.03330   0.03340   0.01700   0.00180  -0.00480   0.00390
C158      0.04400   0.03600   0.01830  -0.00830  -0.00810   0.00030
C160      0.04160   0.03040   0.01940  -0.00820  -0.00440   0.00480
C162      0.03350   0.02380   0.01580   0.00180  -0.00320   0.00190
C163      0.05270   0.02870   0.02030  -0.00870  -0.00680   0.00190
C165      0.05350   0.03310   0.02130  -0.01090  -0.00610   0.00950
C167      0.03050   0.02460   0.01510   0.00170  -0.00160  -0.00080
O168      0.03740   0.08330   0.02240  -0.00370   0.00040   0.01560
O169      0.03510   0.03830   0.01570   0.00920  -0.00220  -0.00140
O170      0.05820   0.03550   0.02060  -0.01380  -0.00840  -0.00190
O171      0.04480   0.02820   0.01640  -0.00490  -0.00470   0.00490
O172      0.03140   0.03070   0.01870  -0.00200   0.00350   0.00130
O175      0.04200   0.02860   0.01700  -0.00760  -0.00010  -0.00040
O178      0.03290   0.03330   0.04970   0.00160   0.00150  -0.00790
Mg181     0.02880   0.02230   0.01370   0.00010  -0.00080   0.00030
C182      0.03340   0.04080   0.01650   0.00900  -0.00080  -0.00330
C183      0.03260   0.04330   0.01690   0.00630   0.00160  -0.00360
C184      0.03910   0.04340   0.01900  -0.00480   0.00570  -0.00330
C186      0.04080   0.04440   0.02070  -0.00770   0.00340  -0.00780
C188      0.03630   0.03690   0.01590   0.00180   0.00230  -0.00450
C189      0.03910   0.06940   0.02390  -0.01430   0.00780  -0.00760
C191      0.03840   0.07090   0.02050  -0.01250   0.00110  -0.00930
C193      0.03330   0.03340   0.01700   0.00180   0.00480  -0.00390
C194      0.04400   0.03600   0.01830  -0.00830   0.00810  -0.00030
C196      0.04160   0.03040   0.01940  -0.00820   0.00440  -0.00480
C198      0.03350   0.02380   0.01580   0.00180   0.00320  -0.00190
C199      0.05270   0.02870   0.02030  -0.00870   0.00680  -0.00190
C201      0.05350   0.03310   0.02130  -0.01090   0.00610  -0.00950
C203      0.03050   0.02460   0.01510   0.00170   0.00160   0.00080
O204      0.03740   0.08330   0.02240  -0.00370  -0.00040  -0.01560
O205      0.03510   0.03830   0.01570   0.00920   0.00220   0.00140
O206      0.05820   0.03550   0.02060  -0.01380   0.00840   0.00190
O207      0.04480   0.02820   0.01640  -0.00490   0.00470  -0.00490
O208      0.03140   0.03070   0.01870  -0.00200  -0.00350  -0.00130
O211      0.04200   0.02860   0.01700  -0.00760   0.00010   0.00040
O214      0.03290   0.03330   0.04970   0.00160  -0.00150   0.00790
Mg217     0.02880   0.02230   0.01370  -0.00010   0.00080   0.00030
C218      0.03340   0.04080   0.01650  -0.00900   0.00080  -0.00330
C219      0.03260   0.04330   0.01690  -0.00630  -0.00160  -0.00360
C220      0.03910   0.04340   0.01900   0.00480  -0.00570  -0.00330
C222      0.04080   0.04440   0.02070   0.00770  -0.00340  -0.00780
C224      0.03630   0.03690   0.01590  -0.00180  -0.00230  -0.00450
C225      0.03910   0.06940   0.02390   0.01430  -0.00780  -0.00760
C227      0.03840   0.07090   0.02050   0.01250  -0.00110  -0.00930
C229      0.03330   0.03340   0.01700  -0.00180  -0.00480  -0.00390
C230      0.04400   0.03600   0.01830   0.00830  -0.00810  -0.00030
C232      0.04160   0.03040   0.01940   0.00820  -0.00440  -0.00480
C234      0.03350   0.02380   0.01580  -0.00180  -0.00320  -0.00190
C235      0.05270   0.02870   0.02030   0.00870  -0.00680  -0.00190
C237      0.05350   0.03310   0.02130   0.01090  -0.00610  -0.00950
C239      0.03050   0.02460   0.01510  -0.00170  -0.00160   0.00080
O240      0.03740   0.08330   0.02240   0.00370   0.00040  -0.01560
O241      0.03510   0.03830   0.01570  -0.00920  -0.00220   0.00140
O242      0.05820   0.03550   0.02060   0.01380  -0.00840   0.00190
O243      0.04480   0.02820   0.01640   0.00490  -0.00470  -0.00490
O244      0.03140   0.03070   0.01870   0.00200   0.00350  -0.00130
O247      0.04200   0.02860   0.01700   0.00760  -0.00010   0.00040
O250      0.03290   0.03330   0.04970  -0.00160   0.00150   0.00790
Mg253     0.02880   0.02230   0.01370  -0.00010  -0.00080  -0.00030
C254      0.03340   0.04080   0.01650  -0.00900  -0.00080   0.00330
C255      0.03260   0.04330   0.01690  -0.00630   0.00160   0.00360
C256      0.03910   0.04340   0.01900   0.00480   0.00570   0.00330
C258      0.04080   0.04440   0.02070   0.00770   0.00340   0.00780
C260      0.03630   0.03690   0.01590  -0.00180   0.00230   0.00450
C261      0.03910   0.06940   0.02390   0.01430   0.00780   0.00760
C263      0.03840   0.07090   0.02050   0.01250   0.00110   0.00930
C265      0.03330   0.03340   0.01700  -0.00180   0.00480   0.00390
C266      0.04400   0.03600   0.01830   0.00830   0.00810   0.00030
C268      0.04160   0.03040   0.01940   0.00820   0.00440   0.00480
C270      0.03350   0.02380   0.01580  -0.00180   0.00320   0.00190
C271      0.05270   0.02870   0.02030   0.00870   0.00680   0.00190
C273      0.05350   0.03310   0.02130   0.01090   0.00610   0.00950
C275      0.03050   0.02460   0.01510  -0.00170   0.00160  -0.00080
O276      0.03740   0.08330   0.02240   0.00370  -0.00040   0.01560
O277      0.03510   0.03830   0.01570  -0.00920   0.00220  -0.00140
O278      0.05820   0.03550   0.02060   0.01380   0.00840  -0.00190
O279      0.04480   0.02820   0.01640   0.00490   0.00470   0.00490
O280      0.03140   0.03070   0.01870   0.00200  -0.00350   0.00130
O283      0.04200   0.02860   0.01700   0.00760   0.00010  -0.00040
O286      0.03290   0.03330   0.04970  -0.00160  -0.00150  -0.00790
loop_
_geom_bond_atom_site_label_1
_geom_bond_atom_site_label_2
_geom_bond_distance
_geom_bond_site_symmetry_2
_ccdc_geom_bond_type
Mg1    O25     2.105   1_565 S
Mg1    O28     2.144   .     S
Mg1    O31     2.055   1_565 S
Mg1    O34     2.126   .     S
Mg1    O206    2.016   1_565 S
Mg1    O99     2.008   .     S
C2     C3      1.500   .     S
C2     O24     1.244   .     S
C2     O25     1.276   .     S
C3     C4      1.385   .     S
C3     C11     1.388   .     S
C4     H5      0.930   .     S
C4     C6      1.385   .     S
C6     H7      0.929   .     S
C6     C8      1.394   .     S
C8     C9      1.399   .     S
C8     C13     1.485   .     S
C9     H10     0.930   .     S
C9     C11     1.382   .     S
C11    H12     0.929   1_545 S
H12    C11     0.929   1_565 S
C13    C14     1.395   .     S
C13    C21     1.394   .     S
C14    H15     0.930   .     S
C14    C16     1.384   .     S
C16    H17     0.930   .     S
C16    C18     1.394   .     S
C18    C19     1.388   .     S
C18    C23     1.499   .     S
C19    H20     0.929   .     S
C19    C21     1.388   .     S
C21    H22     0.929   1_545 S
H22    C21     0.929   1_565 S
C23    O26     1.249   .     S
C23    O27     1.255   .     S
O25    Mg1     2.105   1_545 S
O26    Mg181   2.016   1_545 S
O27    Mg73    2.008   .     S
O28    H29     0.850   .     S
O28    H30     0.927   .     S
O31    Mg1     2.055   1_545 S
O31    H32     0.850   .     S
O31    H33     0.849   .     S
O34    H35     0.851   .     S
O34    H36     0.851   .     S
Mg37   O61     2.105   1_645 S
Mg37   O64     2.144   .     S
Mg37   O67     2.055   1_545 S
Mg37   O70     2.126   .     S
Mg37   O170    2.016   1_545 S
Mg37   O135    2.008   .     S
C38    C39     1.500   .     S
C38    O60     1.244   .     S
C38    O61     1.276   .     S
C39    C40     1.385   .     S
C39    C47     1.388   .     S
C40    H41     0.930   1_455 S
C40    C42     1.385   .     S
H41    C40     0.930   1_655 S
C42    H43     0.929   1_455 S
C42    C44     1.394   .     S
H43    C42     0.929   1_655 S
C44    C45     1.399   .     S
C44    C49     1.485   .     S
C45    H46     0.930   .     S
C45    C47     1.382   .     S
C47    H48     0.929   1_565 S
H48    C47     0.929   1_545 S
C49    C50     1.395   .     S
C49    C57     1.394   .     S
C50    H51     0.930   .     S
C50    C52     1.384   .     S
C52    H53     0.930   .     S
C52    C54     1.394   .     S
C54    C55     1.388   .     S
C54    C59     1.499   .     S
C55    H56     0.929   .     S
C55    C57     1.388   .     S
C57    H58     0.929   1_565 S
H58    C57     0.929   1_545 S
C59    O62     1.249   .     S
C59    O63     1.255   .     S
O61    Mg37    2.105   1_465 S
O62    Mg145   2.016   1_565 S
O63    Mg109   2.008   .     S
O64    H65     0.850   .     S
O64    H66     0.927   .     S
O67    Mg37    2.055   1_565 S
O67    H68     0.850   .     S
O67    H69     0.849   .     S
O70    H71     0.851   .     S
O70    H72     0.851   .     S
Mg73   O97     2.105   .     S
Mg73   O100    2.144   .     S
Mg73   O103    2.055   .     S
Mg73   O106    2.126   .     S
Mg73   O278    2.016   .     S
C74    C75     1.500   .     S
C74    O96     1.244   .     S
C74    O97     1.276   .     S
C75    C76     1.385   .     S
C75    C83     1.388   .     S
C76    H77     0.930   .     S
C76    C78     1.385   .     S
C78    H79     0.929   .     S
C78    C80     1.394   .     S
C80    C81     1.399   .     S
C80    C85     1.485   .     S
C81    H82     0.930   .     S
C81    C83     1.382   .     S
C83    H84     0.929   .     S
C85    C86     1.395   .     S
C85    C93     1.394   .     S
C86    H87     0.930   .     S
C86    C88     1.384   .     S
C88    H89     0.930   .     S
C88    C90     1.394   .     S
C90    C91     1.388   .     S
C90    C95     1.499   .     S
C91    H92     0.929   .     S
C91    C93     1.388   .     S
C93    H94     0.929   .     S
C95    O98     1.249   .     S
C95    O99     1.255   .     S
O98    Mg253   2.016   .     S
O100   H101    0.850   .     S
O100   H102    0.927   .     S
O103   H104    0.850   .     S
O103   H105    0.849   .     S
O106   H107    0.851   .     S
O106   H108    0.851   .     S
Mg109  O133    2.105   1_455 S
Mg109  O136    2.144   .     S
Mg109  O139    2.055   .     S
Mg109  O142    2.126   .     S
Mg109  O242    2.016   .     S
C110   C111    1.500   .     S
C110   O132    1.244   .     S
C110   O133    1.276   .     S
C111   C112    1.385   .     S
C111   C119    1.388   .     S
C112   H113    0.930   1_655 S
C112   C114    1.385   .     S
H113   C112    0.930   1_455 S
C114   H115    0.929   1_655 S
C114   C116    1.394   .     S
H115   C114    0.929   1_455 S
C116   C117    1.399   .     S
C116   C121    1.485   .     S
C117   H118    0.930   .     S
C117   C119    1.382   .     S
C119   H120    0.929   .     S
C121   C122    1.395   .     S
C121   C129    1.394   .     S
C122   H123    0.930   .     S
C122   C124    1.384   .     S
C124   H125    0.930   .     S
C124   C126    1.394   .     S
C126   C127    1.388   .     S
C126   C131    1.499   .     S
C127   H128    0.929   .     S
C127   C129    1.388   .     S
C129   H130    0.929   .     S
C131   O134    1.249   .     S
C131   O135    1.255   .     S
O133   Mg109   2.105   1_655 S
O134   Mg217   2.016   .     S
O136   H137    0.850   .     S
O136   H138    0.927   .     S
O139   H140    0.850   .     S
O139   H141    0.849   .     S
O142   H143    0.851   .     S
O142   H144    0.851   .     S
Mg145  O169    2.105   1_545 S
Mg145  O172    2.144   .     S
Mg145  O175    2.055   1_545 S
Mg145  O178    2.126   .     S
Mg145  O62     2.016   1_545 S
Mg145  O243    2.008   .     S
C146   C147    1.500   .     S
C146   O168    1.244   .     S
C146   O169    1.276   .     S
C147   C148    1.385   .     S
C147   C155    1.388   .     S
C148   H149    0.930   .     S
C148   C150    1.385   .     S
C150   H151    0.929   .     S
C150   C152    1.394   .     S
C152   C153    1.399   .     S
C152   C157    1.485   .     S
C153   H154    0.930   .     S
C153   C155    1.382   .     S
C155   H156    0.929   1_565 S
H156   C155    0.929   1_545 S
C157   C158    1.395   .     S
C157   C165    1.394   .     S
C158   H159    0.930   .     S
C158   C160    1.384   .     S
C160   H161    0.930   .     S
C160   C162    1.394   .     S
C162   C163    1.388   .     S
C162   C167    1.499   .     S
C163   H164    0.929   .     S
C163   C165    1.388   .     S
C165   H166    0.929   1_565 S
H166   C165    0.929   1_545 S
C167   O170    1.249   .     S
C167   O171    1.255   .     S
O169   Mg145   2.105   1_565 S
O170   Mg37    2.016   1_565 S
O171   Mg217   2.008   .     S
O172   H173    0.850   .     S
O172   H174    0.927   .     S
O175   Mg145   2.055   1_565 S
O175   H176    0.850   .     S
O175   H177    0.849   .     S
O178   H179    0.851   .     S
O178   H180    0.851   .     S
Mg181  O205    2.105   1_465 S
Mg181  O208    2.144   .     S
Mg181  O211    2.055   1_565 S
Mg181  O214    2.126   .     S
Mg181  O26     2.016   1_565 S
Mg181  O279    2.008   .     S
C182   C183    1.500   .     S
C182   O204    1.244   .     S
C182   O205    1.276   .     S
C183   C184    1.385   .     S
C183   C191    1.388   .     S
C184   H185    0.930   1_655 S
C184   C186    1.385   .     S
H185   C184    0.930   1_455 S
C186   H187    0.929   1_655 S
C186   C188    1.394   .     S
H187   C186    0.929   1_455 S
C188   C189    1.399   .     S
C188   C193    1.485   .     S
C189   H190    0.930   .     S
C189   C191    1.382   .     S
C191   H192    0.929   1_545 S
H192   C191    0.929   1_565 S
C193   C194    1.395   .     S
C193   C201    1.394   .     S
C194   H195    0.930   .     S
C194   C196    1.384   .     S
C196   H197    0.930   .     S
C196   C198    1.394   .     S
C198   C199    1.388   .     S
C198   C203    1.499   .     S
C199   H200    0.929   .     S
C199   C201    1.388   .     S
C201   H202    0.929   1_545 S
H202   C201    0.929   1_565 S
C203   O206    1.249   .     S
C203   O207    1.255   .     S
O205   Mg181   2.105   1_645 S
O206   Mg1     2.016   1_545 S
O207   Mg253   2.008   .     S
O208   H209    0.850   .     S
O208   H210    0.927   .     S
O211   Mg181   2.055   1_545 S
O211   H212    0.850   .     S
O211   H213    0.849   .     S
O214   H215    0.851   .     S
O214   H216    0.851   .     S
Mg217  O241    2.105   .     S
Mg217  O244    2.144   .     S
Mg217  O247    2.055   .     S
Mg217  O250    2.126   .     S
C218   C219    1.500   .     S
C218   O240    1.244   .     S
C218   O241    1.276   .     S
C219   C220    1.385   .     S
C219   C227    1.388   .     S
C220   H221    0.930   .     S
C220   C222    1.385   .     S
C222   H223    0.929   .     S
C222   C224    1.394   .     S
C224   C225    1.399   .     S
C224   C229    1.485   .     S
C225   H226    0.930   .     S
C225   C227    1.382   .     S
C227   H228    0.929   .     S
C229   C230    1.395   .     S
C229   C237    1.394   .     S
C230   H231    0.930   .     S
C230   C232    1.384   .     S
C232   H233    0.930   .     S
C232   C234    1.394   .     S
C234   C235    1.388   .     S
C234   C239    1.499   .     S
C235   H236    0.929   .     S
C235   C237    1.388   .     S
C237   H238    0.929   .     S
C239   O242    1.249   .     S
C239   O243    1.255   .     S
O244   H245    0.850   .     S
O244   H246    0.927   .     S
O247   H248    0.850   .     S
O247   H249    0.849   .     S
O250   H251    0.851   .     S
O250   H252    0.851   .     S
Mg253  O277    2.105   1_655 S
Mg253  O280    2.144   .     S
Mg253  O283    2.055   .     S
Mg253  O286    2.126   .     S
C254   C255    1.500   .     S
C254   O276    1.244   .     S
C254   O277    1.276   .     S
C255   C256    1.385   .     S
C255   C263    1.388   .     S
C256   H257    0.930   1_455 S
C256   C258    1.385   .     S
H257   C256    0.930   1_655 S
C258   H259    0.929   1_455 S
C258   C260    1.394   .     S
H259   C258    0.929   1_655 S
C260   C261    1.399   .     S
C260   C265    1.485   .     S
C261   H262    0.930   .     S
C261   C263    1.382   .     S
C263   H264    0.929   .     S
C265   C266    1.395   .     S
C265   C273    1.394   .     S
C266   H267    0.930   .     S
C266   C268    1.384   .     S
C268   H269    0.930   .     S
C268   C270    1.394   .     S
C270   C271    1.388   .     S
C270   C275    1.499   .     S
C271   H272    0.929   .     S
C271   C273    1.388   .     S
C273   H274    0.929   .     S
C275   O278    1.249   .     S
C275   O279    1.255   .     S
O277   Mg253   2.105   1_455 S
O280   H281    0.850   .     S
O280   H282    0.927   .     S
O283   H284    0.850   .     S
O283   H285    0.849   .     S
O286   H287    0.851   .     S
O286   H288    0.851   .     S
