data_FIVTUC_FSR
_audit_creation_date              2024-06-11
_audit_creation_method            'Materials Studio'
_symmetry_space_group_name_H-M    'P1'
_symmetry_Int_Tables_number       1
_symmetry_cell_setting            triclinic
loop_
_symmetry_equiv_pos_as_xyz
  x,y,z
_cell_length_a                    24.9640
_cell_length_b                    24.9640
_cell_length_c                    24.9640
_cell_angle_alpha                 90.0000
_cell_angle_beta                  90.0000
_cell_angle_gamma                 90.0000
loop_
_atom_site_label
_atom_site_type_symbol
_atom_site_fract_x
_atom_site_fract_y
_atom_site_fract_z
_atom_site_U_iso_or_equiv
_atom_site_adp_type
_atom_site_occupancy
C1     C     0.39540   0.36780   0.12130   0.00000  Uiso   1.00
O2     O     0.42359   0.29965   0.18085   0.00000  Uiso   1.00
N3     N     0.40360   0.47720   0.01960   0.00000  Uiso   1.00
C4     C     0.35680   0.38780   0.15580   0.00000  Uiso   1.00
H5     H     0.34620   0.36780   0.18640   0.00000  Uiso   1.00
O6     O     0.43754   0.28811   0.09295   0.00000  Uiso   1.00
C7     C     0.33330   0.43820   0.14510   0.00000  Uiso   1.00
O8     O     0.27814   0.43336   0.22351   0.00000  Uiso   1.00
C9     C     0.34890   0.46680   0.10030   0.00000  Uiso   1.00
H10    H     0.33340   0.50080   0.09280   0.00000  Uiso   1.00
O11    O     0.27115   0.50470   0.17130   0.00000  Uiso   1.00
C12    C     0.38710   0.44530   0.06670   0.00000  Uiso   1.00
O13    O     0.38590   0.52180   0.01550   0.00000  Uiso   1.00
C14    C     0.41070   0.39630   0.07540   0.00000  Uiso   1.00
H15    H     0.43640   0.38220   0.05110   0.00000  Uiso   1.00
O16    O     0.43460   0.45620   0.98770   0.00000  Uiso   1.00
C17    C     0.42000   0.31330   0.13250   0.00000  Uiso   1.00
C18    C     0.29140   0.45930   0.18180   0.00000  Uiso   1.00
C19    C     0.89540   0.86780   0.62130   0.00000  Uiso   1.00
O20    O     0.92359   0.79965   0.68085   0.00000  Uiso   1.00
N21    N     0.90360   0.97720   0.51960   0.00000  Uiso   1.00
C22    C     0.85680   0.88780   0.65580   0.00000  Uiso   1.00
H23    H     0.84620   0.86780   0.68640   0.00000  Uiso   1.00
O24    O     0.93754   0.78811   0.59295   0.00000  Uiso   1.00
C25    C     0.83330   0.93820   0.64510   0.00000  Uiso   1.00
O26    O     0.77814   0.93336   0.72351   0.00000  Uiso   1.00
C27    C     0.84890   0.96680   0.60030   0.00000  Uiso   1.00
H28    H     0.83340   0.00080   0.59280   0.00000  Uiso   1.00
O29    O     0.77115   0.00470   0.67130   0.00000  Uiso   1.00
C30    C     0.88710   0.94530   0.56670   0.00000  Uiso   1.00
O31    O     0.88590   0.02180   0.51550   0.00000  Uiso   1.00
C32    C     0.91070   0.89630   0.57540   0.00000  Uiso   1.00
H33    H     0.93640   0.88220   0.55110   0.00000  Uiso   1.00
O34    O     0.93460   0.95620   0.48770   0.00000  Uiso   1.00
C35    C     0.92000   0.81330   0.63250   0.00000  Uiso   1.00
C36    C     0.79140   0.95930   0.68180   0.00000  Uiso   1.00
C37    C     0.10460   0.63220   0.62130   0.00000  Uiso   1.00
O38    O     0.07641   0.70035   0.68085   0.00000  Uiso   1.00
N39    N     0.09640   0.52280   0.51960   0.00000  Uiso   1.00
C40    C     0.14320   0.61220   0.65580   0.00000  Uiso   1.00
H41    H     0.15380   0.63220   0.68640   0.00000  Uiso   1.00
O42    O     0.06246   0.71189   0.59295   0.00000  Uiso   1.00
C43    C     0.16670   0.56180   0.64510   0.00000  Uiso   1.00
O44    O     0.22186   0.56664   0.72351   0.00000  Uiso   1.00
C45    C     0.15110   0.53320   0.60030   0.00000  Uiso   1.00
H46    H     0.16660   0.49920   0.59280   0.00000  Uiso   1.00
O47    O     0.22885   0.49530   0.67130   0.00000  Uiso   1.00
C48    C     0.11290   0.55470   0.56670   0.00000  Uiso   1.00
O49    O     0.11410   0.47820   0.51550   0.00000  Uiso   1.00
C50    C     0.08930   0.60370   0.57540   0.00000  Uiso   1.00
H51    H     0.06360   0.61780   0.55110   0.00000  Uiso   1.00
O52    O     0.06540   0.54380   0.48770   0.00000  Uiso   1.00
C53    C     0.08000   0.68670   0.63250   0.00000  Uiso   1.00
C54    C     0.20860   0.54070   0.68180   0.00000  Uiso   1.00
C55    C     0.60460   0.13220   0.12130   0.00000  Uiso   1.00
O56    O     0.57641   0.20035   0.18085   0.00000  Uiso   1.00
N57    N     0.59640   0.02280   0.01960   0.00000  Uiso   1.00
C58    C     0.64320   0.11220   0.15580   0.00000  Uiso   1.00
H59    H     0.65380   0.13220   0.18640   0.00000  Uiso   1.00
O60    O     0.56246   0.21189   0.09295   0.00000  Uiso   1.00
C61    C     0.66670   0.06180   0.14510   0.00000  Uiso   1.00
O62    O     0.72186   0.06664   0.22351   0.00000  Uiso   1.00
C63    C     0.65110   0.03320   0.10030   0.00000  Uiso   1.00
H64    H     0.66660   0.99920   0.09280   0.00000  Uiso   1.00
O65    O     0.72885   0.99530   0.17130   0.00000  Uiso   1.00
C66    C     0.61290   0.05470   0.06670   0.00000  Uiso   1.00
O67    O     0.61410   0.97820   0.01550   0.00000  Uiso   1.00
C68    C     0.58930   0.10370   0.07540   0.00000  Uiso   1.00
H69    H     0.56360   0.11780   0.05110   0.00000  Uiso   1.00
O70    O     0.56540   0.04380   0.98770   0.00000  Uiso   1.00
C71    C     0.58000   0.18670   0.13250   0.00000  Uiso   1.00
C72    C     0.70860   0.04070   0.18180   0.00000  Uiso   1.00
C73    C     0.60460   0.86780   0.37870   0.00000  Uiso   1.00
O74    O     0.57641   0.79965   0.31915   0.00000  Uiso   1.00
N75    N     0.59640   0.97720   0.48040   0.00000  Uiso   1.00
C76    C     0.64320   0.88780   0.34420   0.00000  Uiso   1.00
H77    H     0.65380   0.86780   0.31360   0.00000  Uiso   1.00
O78    O     0.56246   0.78811   0.40705   0.00000  Uiso   1.00
C79    C     0.66670   0.93820   0.35490   0.00000  Uiso   1.00
O80    O     0.72186   0.93336   0.27649   0.00000  Uiso   1.00
C81    C     0.65110   0.96680   0.39970   0.00000  Uiso   1.00
H82    H     0.66660   0.00080   0.40720   0.00000  Uiso   1.00
O83    O     0.72885   0.00470   0.32870   0.00000  Uiso   1.00
C84    C     0.61290   0.94530   0.43330   0.00000  Uiso   1.00
O85    O     0.61410   0.02180   0.48450   0.00000  Uiso   1.00
C86    C     0.58930   0.89630   0.42460   0.00000  Uiso   1.00
H87    H     0.56360   0.88220   0.44890   0.00000  Uiso   1.00
O88    O     0.56540   0.95620   0.51230   0.00000  Uiso   1.00
C89    C     0.58000   0.81330   0.36750   0.00000  Uiso   1.00
C90    C     0.70860   0.95930   0.31820   0.00000  Uiso   1.00
C91    C     0.10460   0.36780   0.87870   0.00000  Uiso   1.00
O92    O     0.07641   0.29965   0.81915   0.00000  Uiso   1.00
N93    N     0.09640   0.47720   0.98040   0.00000  Uiso   1.00
C94    C     0.14320   0.38780   0.84420   0.00000  Uiso   1.00
H95    H     0.15380   0.36780   0.81360   0.00000  Uiso   1.00
O96    O     0.06246   0.28811   0.90705   0.00000  Uiso   1.00
C97    C     0.16670   0.43820   0.85490   0.00000  Uiso   1.00
O98    O     0.22186   0.43336   0.77649   0.00000  Uiso   1.00
C99    C     0.15110   0.46680   0.89970   0.00000  Uiso   1.00
H100   H     0.16660   0.50080   0.90720   0.00000  Uiso   1.00
O101   O     0.22885   0.50470   0.82870   0.00000  Uiso   1.00
C102   C     0.11290   0.44530   0.93330   0.00000  Uiso   1.00
O103   O     0.11410   0.52180   0.98450   0.00000  Uiso   1.00
C104   C     0.08930   0.39630   0.92460   0.00000  Uiso   1.00
H105   H     0.06360   0.38220   0.94890   0.00000  Uiso   1.00
O106   O     0.06540   0.45620   0.01230   0.00000  Uiso   1.00
C107   C     0.08000   0.31330   0.86750   0.00000  Uiso   1.00
C108   C     0.20860   0.45930   0.81820   0.00000  Uiso   1.00
C109   C     0.89540   0.13220   0.87870   0.00000  Uiso   1.00
O110   O     0.92359   0.20035   0.81915   0.00000  Uiso   1.00
N111   N     0.90360   0.02280   0.98040   0.00000  Uiso   1.00
C112   C     0.85680   0.11220   0.84420   0.00000  Uiso   1.00
H113   H     0.84620   0.13220   0.81360   0.00000  Uiso   1.00
O114   O     0.93754   0.21189   0.90705   0.00000  Uiso   1.00
C115   C     0.83330   0.06180   0.85490   0.00000  Uiso   1.00
O116   O     0.77814   0.06664   0.77649   0.00000  Uiso   1.00
C117   C     0.84890   0.03320   0.89970   0.00000  Uiso   1.00
H118   H     0.83340   0.99920   0.90720   0.00000  Uiso   1.00
O119   O     0.77115   0.99530   0.82870   0.00000  Uiso   1.00
C120   C     0.88710   0.05470   0.93330   0.00000  Uiso   1.00
O121   O     0.88590   0.97820   0.98450   0.00000  Uiso   1.00
C122   C     0.91070   0.10370   0.92460   0.00000  Uiso   1.00
H123   H     0.93640   0.11780   0.94890   0.00000  Uiso   1.00
O124   O     0.93460   0.04380   0.01230   0.00000  Uiso   1.00
C125   C     0.92000   0.18670   0.86750   0.00000  Uiso   1.00
C126   C     0.79140   0.04070   0.81820   0.00000  Uiso   1.00
C127   C     0.39540   0.63220   0.37870   0.00000  Uiso   1.00
O128   O     0.42359   0.70035   0.31915   0.00000  Uiso   1.00
N129   N     0.40360   0.52280   0.48040   0.00000  Uiso   1.00
C130   C     0.35680   0.61220   0.34420   0.00000  Uiso   1.00
H131   H     0.34620   0.63220   0.31360   0.00000  Uiso   1.00
O132   O     0.43754   0.71189   0.40705   0.00000  Uiso   1.00
C133   C     0.33330   0.56180   0.35490   0.00000  Uiso   1.00
O134   O     0.27814   0.56664   0.27649   0.00000  Uiso   1.00
C135   C     0.34890   0.53320   0.39970   0.00000  Uiso   1.00
H136   H     0.33340   0.49920   0.40720   0.00000  Uiso   1.00
O137   O     0.27115   0.49530   0.32870   0.00000  Uiso   1.00
C138   C     0.38710   0.55470   0.43330   0.00000  Uiso   1.00
O139   O     0.38590   0.47820   0.48450   0.00000  Uiso   1.00
C140   C     0.41070   0.60370   0.42460   0.00000  Uiso   1.00
H141   H     0.43640   0.61780   0.44890   0.00000  Uiso   1.00
O142   O     0.43460   0.54380   0.51230   0.00000  Uiso   1.00
C143   C     0.42000   0.68670   0.36750   0.00000  Uiso   1.00
C144   C     0.29140   0.54070   0.31820   0.00000  Uiso   1.00
C145   C     0.12130   0.39540   0.36780   0.00000  Uiso   1.00
O146   O     0.18085   0.42359   0.29965   0.00000  Uiso   1.00
N147   N     0.01960   0.40360   0.47720   0.00000  Uiso   1.00
C148   C     0.15580   0.35680   0.38780   0.00000  Uiso   1.00
H149   H     0.18640   0.34620   0.36780   0.00000  Uiso   1.00
O150   O     0.09295   0.43754   0.28811   0.00000  Uiso   1.00
C151   C     0.14510   0.33330   0.43820   0.00000  Uiso   1.00
O152   O     0.22351   0.27814   0.43336   0.00000  Uiso   1.00
C153   C     0.10030   0.34890   0.46680   0.00000  Uiso   1.00
H154   H     0.09280   0.33340   0.50080   0.00000  Uiso   1.00
O155   O     0.17130   0.27115   0.50470   0.00000  Uiso   1.00
C156   C     0.06670   0.38710   0.44530   0.00000  Uiso   1.00
O157   O     0.01550   0.38590   0.52180   0.00000  Uiso   1.00
C158   C     0.07540   0.41070   0.39630   0.00000  Uiso   1.00
H159   H     0.05110   0.43640   0.38220   0.00000  Uiso   1.00
O160   O     0.98770   0.43460   0.45620   0.00000  Uiso   1.00
C161   C     0.13250   0.42000   0.31330   0.00000  Uiso   1.00
C162   C     0.18180   0.29140   0.45930   0.00000  Uiso   1.00
C163   C     0.62130   0.89540   0.86780   0.00000  Uiso   1.00
O164   O     0.68085   0.92359   0.79965   0.00000  Uiso   1.00
N165   N     0.51960   0.90360   0.97720   0.00000  Uiso   1.00
C166   C     0.65580   0.85680   0.88780   0.00000  Uiso   1.00
H167   H     0.68640   0.84620   0.86780   0.00000  Uiso   1.00
O168   O     0.59295   0.93754   0.78811   0.00000  Uiso   1.00
C169   C     0.64510   0.83330   0.93820   0.00000  Uiso   1.00
O170   O     0.72351   0.77814   0.93336   0.00000  Uiso   1.00
C171   C     0.60030   0.84890   0.96680   0.00000  Uiso   1.00
H172   H     0.59280   0.83340   0.00080   0.00000  Uiso   1.00
O173   O     0.67130   0.77115   0.00470   0.00000  Uiso   1.00
C174   C     0.56670   0.88710   0.94530   0.00000  Uiso   1.00
O175   O     0.51550   0.88590   0.02180   0.00000  Uiso   1.00
C176   C     0.57540   0.91070   0.89630   0.00000  Uiso   1.00
H177   H     0.55110   0.93640   0.88220   0.00000  Uiso   1.00
O178   O     0.48770   0.93460   0.95620   0.00000  Uiso   1.00
C179   C     0.63250   0.92000   0.81330   0.00000  Uiso   1.00
C180   C     0.68180   0.79140   0.95930   0.00000  Uiso   1.00
C181   C     0.62130   0.10460   0.63220   0.00000  Uiso   1.00
O182   O     0.68085   0.07641   0.70035   0.00000  Uiso   1.00
N183   N     0.51960   0.09640   0.52280   0.00000  Uiso   1.00
C184   C     0.65580   0.14320   0.61220   0.00000  Uiso   1.00
H185   H     0.68640   0.15380   0.63220   0.00000  Uiso   1.00
O186   O     0.59295   0.06246   0.71189   0.00000  Uiso   1.00
C187   C     0.64510   0.16670   0.56180   0.00000  Uiso   1.00
O188   O     0.72351   0.22186   0.56664   0.00000  Uiso   1.00
C189   C     0.60030   0.15110   0.53320   0.00000  Uiso   1.00
H190   H     0.59280   0.16660   0.49920   0.00000  Uiso   1.00
O191   O     0.67130   0.22885   0.49530   0.00000  Uiso   1.00
C192   C     0.56670   0.11290   0.55470   0.00000  Uiso   1.00
O193   O     0.51550   0.11410   0.47820   0.00000  Uiso   1.00
C194   C     0.57540   0.08930   0.60370   0.00000  Uiso   1.00
H195   H     0.55110   0.06360   0.61780   0.00000  Uiso   1.00
O196   O     0.48770   0.06540   0.54380   0.00000  Uiso   1.00
C197   C     0.63250   0.08000   0.68670   0.00000  Uiso   1.00
C198   C     0.68180   0.20860   0.54070   0.00000  Uiso   1.00
C199   C     0.12130   0.60460   0.13220   0.00000  Uiso   1.00
O200   O     0.18085   0.57641   0.20035   0.00000  Uiso   1.00
N201   N     0.01960   0.59640   0.02280   0.00000  Uiso   1.00
C202   C     0.15580   0.64320   0.11220   0.00000  Uiso   1.00
H203   H     0.18640   0.65380   0.13220   0.00000  Uiso   1.00
O204   O     0.09295   0.56246   0.21189   0.00000  Uiso   1.00
C205   C     0.14510   0.66670   0.06180   0.00000  Uiso   1.00
O206   O     0.22351   0.72186   0.06664   0.00000  Uiso   1.00
C207   C     0.10030   0.65110   0.03320   0.00000  Uiso   1.00
H208   H     0.09280   0.66660   0.99920   0.00000  Uiso   1.00
O209   O     0.17130   0.72885   0.99530   0.00000  Uiso   1.00
C210   C     0.06670   0.61290   0.05470   0.00000  Uiso   1.00
O211   O     0.01550   0.61410   0.97820   0.00000  Uiso   1.00
C212   C     0.07540   0.58930   0.10370   0.00000  Uiso   1.00
H213   H     0.05110   0.56360   0.11780   0.00000  Uiso   1.00
O214   O     0.98770   0.56540   0.04380   0.00000  Uiso   1.00
C215   C     0.13250   0.58000   0.18670   0.00000  Uiso   1.00
C216   C     0.18180   0.70860   0.04070   0.00000  Uiso   1.00
C217   C     0.37870   0.60460   0.86780   0.00000  Uiso   1.00
O218   O     0.31915   0.57641   0.79965   0.00000  Uiso   1.00
N219   N     0.48040   0.59640   0.97720   0.00000  Uiso   1.00
C220   C     0.34420   0.64320   0.88780   0.00000  Uiso   1.00
H221   H     0.31360   0.65380   0.86780   0.00000  Uiso   1.00
O222   O     0.40705   0.56246   0.78811   0.00000  Uiso   1.00
C223   C     0.35490   0.66670   0.93820   0.00000  Uiso   1.00
O224   O     0.27649   0.72186   0.93336   0.00000  Uiso   1.00
C225   C     0.39970   0.65110   0.96680   0.00000  Uiso   1.00
H226   H     0.40720   0.66660   0.00080   0.00000  Uiso   1.00
O227   O     0.32870   0.72885   0.00470   0.00000  Uiso   1.00
C228   C     0.43330   0.61290   0.94530   0.00000  Uiso   1.00
O229   O     0.48450   0.61410   0.02180   0.00000  Uiso   1.00
C230   C     0.42460   0.58930   0.89630   0.00000  Uiso   1.00
H231   H     0.44890   0.56360   0.88220   0.00000  Uiso   1.00
O232   O     0.51230   0.56540   0.95620   0.00000  Uiso   1.00
C233   C     0.36750   0.58000   0.81330   0.00000  Uiso   1.00
C234   C     0.31820   0.70860   0.95930   0.00000  Uiso   1.00
C235   C     0.87870   0.10460   0.36780   0.00000  Uiso   1.00
O236   O     0.81915   0.07641   0.29965   0.00000  Uiso   1.00
N237   N     0.98040   0.09640   0.47720   0.00000  Uiso   1.00
C238   C     0.84420   0.14320   0.38780   0.00000  Uiso   1.00
H239   H     0.81360   0.15380   0.36780   0.00000  Uiso   1.00
O240   O     0.90705   0.06246   0.28811   0.00000  Uiso   1.00
C241   C     0.85490   0.16670   0.43820   0.00000  Uiso   1.00
O242   O     0.77649   0.22186   0.43336   0.00000  Uiso   1.00
C243   C     0.89970   0.15110   0.46680   0.00000  Uiso   1.00
H244   H     0.90720   0.16660   0.50080   0.00000  Uiso   1.00
O245   O     0.82870   0.22885   0.50470   0.00000  Uiso   1.00
C246   C     0.93330   0.11290   0.44530   0.00000  Uiso   1.00
O247   O     0.98450   0.11410   0.52180   0.00000  Uiso   1.00
C248   C     0.92460   0.08930   0.39630   0.00000  Uiso   1.00
H249   H     0.94890   0.06360   0.38220   0.00000  Uiso   1.00
O250   O     0.01230   0.06540   0.45620   0.00000  Uiso   1.00
C251   C     0.86750   0.08000   0.31330   0.00000  Uiso   1.00
C252   C     0.81820   0.20860   0.45930   0.00000  Uiso   1.00
C253   C     0.87870   0.89540   0.13220   0.00000  Uiso   1.00
O254   O     0.81915   0.92359   0.20035   0.00000  Uiso   1.00
N255   N     0.98040   0.90360   0.02280   0.00000  Uiso   1.00
C256   C     0.84420   0.85680   0.11220   0.00000  Uiso   1.00
H257   H     0.81360   0.84620   0.13220   0.00000  Uiso   1.00
O258   O     0.90705   0.93754   0.21189   0.00000  Uiso   1.00
C259   C     0.85490   0.83330   0.06180   0.00000  Uiso   1.00
O260   O     0.77649   0.77814   0.06664   0.00000  Uiso   1.00
C261   C     0.89970   0.84890   0.03320   0.00000  Uiso   1.00
H262   H     0.90720   0.83340   0.99920   0.00000  Uiso   1.00
O263   O     0.82870   0.77115   0.99530   0.00000  Uiso   1.00
C264   C     0.93330   0.88710   0.05470   0.00000  Uiso   1.00
O265   O     0.98450   0.88590   0.97820   0.00000  Uiso   1.00
C266   C     0.92460   0.91070   0.10370   0.00000  Uiso   1.00
H267   H     0.94890   0.93640   0.11780   0.00000  Uiso   1.00
O268   O     0.01230   0.93460   0.04380   0.00000  Uiso   1.00
C269   C     0.86750   0.92000   0.18670   0.00000  Uiso   1.00
C270   C     0.81820   0.79140   0.04070   0.00000  Uiso   1.00
C271   C     0.37870   0.39540   0.63220   0.00000  Uiso   1.00
O272   O     0.31915   0.42359   0.70035   0.00000  Uiso   1.00
N273   N     0.48040   0.40360   0.52280   0.00000  Uiso   1.00
C274   C     0.34420   0.35680   0.61220   0.00000  Uiso   1.00
H275   H     0.31360   0.34620   0.63220   0.00000  Uiso   1.00
O276   O     0.40705   0.43754   0.71189   0.00000  Uiso   1.00
C277   C     0.35490   0.33330   0.56180   0.00000  Uiso   1.00
O278   O     0.27649   0.27814   0.56664   0.00000  Uiso   1.00
C279   C     0.39970   0.34890   0.53320   0.00000  Uiso   1.00
H280   H     0.40720   0.33340   0.49920   0.00000  Uiso   1.00
O281   O     0.32870   0.27115   0.49530   0.00000  Uiso   1.00
C282   C     0.43330   0.38710   0.55470   0.00000  Uiso   1.00
O283   O     0.48450   0.38590   0.47820   0.00000  Uiso   1.00
C284   C     0.42460   0.41070   0.60370   0.00000  Uiso   1.00
H285   H     0.44890   0.43640   0.61780   0.00000  Uiso   1.00
O286   O     0.51230   0.43460   0.54380   0.00000  Uiso   1.00
C287   C     0.36750   0.42000   0.68670   0.00000  Uiso   1.00
C288   C     0.31820   0.29140   0.54070   0.00000  Uiso   1.00
C289   C     0.36780   0.12130   0.39540   0.00000  Uiso   1.00
O290   O     0.29965   0.18085   0.42359   0.00000  Uiso   1.00
N291   N     0.47720   0.01960   0.40360   0.00000  Uiso   1.00
C292   C     0.38780   0.15580   0.35680   0.00000  Uiso   1.00
H293   H     0.36780   0.18640   0.34620   0.00000  Uiso   1.00
O294   O     0.28811   0.09295   0.43754   0.00000  Uiso   1.00
C295   C     0.43820   0.14510   0.33330   0.00000  Uiso   1.00
O296   O     0.43336   0.22351   0.27814   0.00000  Uiso   1.00
C297   C     0.46680   0.10030   0.34890   0.00000  Uiso   1.00
H298   H     0.50080   0.09280   0.33340   0.00000  Uiso   1.00
O299   O     0.50470   0.17130   0.27115   0.00000  Uiso   1.00
C300   C     0.44530   0.06670   0.38710   0.00000  Uiso   1.00
O301   O     0.52180   0.01550   0.38590   0.00000  Uiso   1.00
C302   C     0.39630   0.07540   0.41070   0.00000  Uiso   1.00
H303   H     0.38220   0.05110   0.43640   0.00000  Uiso   1.00
O304   O     0.45620   0.98770   0.43460   0.00000  Uiso   1.00
C305   C     0.31330   0.13250   0.42000   0.00000  Uiso   1.00
C306   C     0.45930   0.18180   0.29140   0.00000  Uiso   1.00
C307   C     0.86780   0.62130   0.89540   0.00000  Uiso   1.00
O308   O     0.79965   0.68085   0.92359   0.00000  Uiso   1.00
N309   N     0.97720   0.51960   0.90360   0.00000  Uiso   1.00
C310   C     0.88780   0.65580   0.85680   0.00000  Uiso   1.00
H311   H     0.86780   0.68640   0.84620   0.00000  Uiso   1.00
O312   O     0.78811   0.59295   0.93754   0.00000  Uiso   1.00
C313   C     0.93820   0.64510   0.83330   0.00000  Uiso   1.00
O314   O     0.93336   0.72351   0.77814   0.00000  Uiso   1.00
C315   C     0.96680   0.60030   0.84890   0.00000  Uiso   1.00
H316   H     0.00080   0.59280   0.83340   0.00000  Uiso   1.00
O317   O     0.00470   0.67130   0.77115   0.00000  Uiso   1.00
C318   C     0.94530   0.56670   0.88710   0.00000  Uiso   1.00
O319   O     0.02180   0.51550   0.88590   0.00000  Uiso   1.00
C320   C     0.89630   0.57540   0.91070   0.00000  Uiso   1.00
H321   H     0.88220   0.55110   0.93640   0.00000  Uiso   1.00
O322   O     0.95620   0.48770   0.93460   0.00000  Uiso   1.00
C323   C     0.81330   0.63250   0.92000   0.00000  Uiso   1.00
C324   C     0.95930   0.68180   0.79140   0.00000  Uiso   1.00
C325   C     0.63220   0.62130   0.10460   0.00000  Uiso   1.00
O326   O     0.70035   0.68085   0.07641   0.00000  Uiso   1.00
N327   N     0.52280   0.51960   0.09640   0.00000  Uiso   1.00
C328   C     0.61220   0.65580   0.14320   0.00000  Uiso   1.00
H329   H     0.63220   0.68640   0.15380   0.00000  Uiso   1.00
O330   O     0.71189   0.59295   0.06246   0.00000  Uiso   1.00
C331   C     0.56180   0.64510   0.16670   0.00000  Uiso   1.00
O332   O     0.56664   0.72351   0.22186   0.00000  Uiso   1.00
C333   C     0.53320   0.60030   0.15110   0.00000  Uiso   1.00
H334   H     0.49920   0.59280   0.16660   0.00000  Uiso   1.00
O335   O     0.49530   0.67130   0.22885   0.00000  Uiso   1.00
C336   C     0.55470   0.56670   0.11290   0.00000  Uiso   1.00
O337   O     0.47820   0.51550   0.11410   0.00000  Uiso   1.00
C338   C     0.60370   0.57540   0.08930   0.00000  Uiso   1.00
H339   H     0.61780   0.55110   0.06360   0.00000  Uiso   1.00
O340   O     0.54380   0.48770   0.06540   0.00000  Uiso   1.00
C341   C     0.68670   0.63250   0.08000   0.00000  Uiso   1.00
C342   C     0.54070   0.68180   0.20860   0.00000  Uiso   1.00
C343   C     0.13220   0.12130   0.60460   0.00000  Uiso   1.00
O344   O     0.20035   0.18085   0.57641   0.00000  Uiso   1.00
N345   N     0.02280   0.01960   0.59640   0.00000  Uiso   1.00
C346   C     0.11220   0.15580   0.64320   0.00000  Uiso   1.00
H347   H     0.13220   0.18640   0.65380   0.00000  Uiso   1.00
O348   O     0.21189   0.09295   0.56246   0.00000  Uiso   1.00
C349   C     0.06180   0.14510   0.66670   0.00000  Uiso   1.00
O350   O     0.06664   0.22351   0.72186   0.00000  Uiso   1.00
C351   C     0.03320   0.10030   0.65110   0.00000  Uiso   1.00
H352   H     0.99920   0.09280   0.66660   0.00000  Uiso   1.00
O353   O     0.99530   0.17130   0.72885   0.00000  Uiso   1.00
C354   C     0.05470   0.06670   0.61290   0.00000  Uiso   1.00
O355   O     0.97820   0.01550   0.61410   0.00000  Uiso   1.00
C356   C     0.10370   0.07540   0.58930   0.00000  Uiso   1.00
H357   H     0.11780   0.05110   0.56360   0.00000  Uiso   1.00
O358   O     0.04380   0.98770   0.56540   0.00000  Uiso   1.00
C359   C     0.18670   0.13250   0.58000   0.00000  Uiso   1.00
C360   C     0.04070   0.18180   0.70860   0.00000  Uiso   1.00
C361   C     0.86780   0.37870   0.60460   0.00000  Uiso   1.00
O362   O     0.79965   0.31915   0.57641   0.00000  Uiso   1.00
N363   N     0.97720   0.48040   0.59640   0.00000  Uiso   1.00
C364   C     0.88780   0.34420   0.64320   0.00000  Uiso   1.00
H365   H     0.86780   0.31360   0.65380   0.00000  Uiso   1.00
O366   O     0.78811   0.40705   0.56246   0.00000  Uiso   1.00
C367   C     0.93820   0.35490   0.66670   0.00000  Uiso   1.00
O368   O     0.93336   0.27649   0.72186   0.00000  Uiso   1.00
C369   C     0.96680   0.39970   0.65110   0.00000  Uiso   1.00
H370   H     0.00080   0.40720   0.66660   0.00000  Uiso   1.00
O371   O     0.00470   0.32870   0.72885   0.00000  Uiso   1.00
C372   C     0.94530   0.43330   0.61290   0.00000  Uiso   1.00
O373   O     0.02180   0.48450   0.61410   0.00000  Uiso   1.00
C374   C     0.89630   0.42460   0.58930   0.00000  Uiso   1.00
H375   H     0.88220   0.44890   0.56360   0.00000  Uiso   1.00
O376   O     0.95620   0.51230   0.56540   0.00000  Uiso   1.00
C377   C     0.81330   0.36750   0.58000   0.00000  Uiso   1.00
C378   C     0.95930   0.31820   0.70860   0.00000  Uiso   1.00
C379   C     0.36780   0.87870   0.10460   0.00000  Uiso   1.00
O380   O     0.29965   0.81915   0.07641   0.00000  Uiso   1.00
N381   N     0.47720   0.98040   0.09640   0.00000  Uiso   1.00
C382   C     0.38780   0.84420   0.14320   0.00000  Uiso   1.00
H383   H     0.36780   0.81360   0.15380   0.00000  Uiso   1.00
O384   O     0.28811   0.90705   0.06246   0.00000  Uiso   1.00
C385   C     0.43820   0.85490   0.16670   0.00000  Uiso   1.00
O386   O     0.43336   0.77649   0.22186   0.00000  Uiso   1.00
C387   C     0.46680   0.89970   0.15110   0.00000  Uiso   1.00
H388   H     0.50080   0.90720   0.16660   0.00000  Uiso   1.00
O389   O     0.50470   0.82870   0.22885   0.00000  Uiso   1.00
C390   C     0.44530   0.93330   0.11290   0.00000  Uiso   1.00
O391   O     0.52180   0.98450   0.11410   0.00000  Uiso   1.00
C392   C     0.39630   0.92460   0.08930   0.00000  Uiso   1.00
H393   H     0.38220   0.94890   0.06360   0.00000  Uiso   1.00
O394   O     0.45620   0.01230   0.06540   0.00000  Uiso   1.00
C395   C     0.31330   0.86750   0.08000   0.00000  Uiso   1.00
C396   C     0.45930   0.81820   0.20860   0.00000  Uiso   1.00
C397   C     0.13220   0.87870   0.89540   0.00000  Uiso   1.00
O398   O     0.20035   0.81915   0.92359   0.00000  Uiso   1.00
N399   N     0.02280   0.98040   0.90360   0.00000  Uiso   1.00
C400   C     0.11220   0.84420   0.85680   0.00000  Uiso   1.00
H401   H     0.13220   0.81360   0.84620   0.00000  Uiso   1.00
O402   O     0.21189   0.90705   0.93754   0.00000  Uiso   1.00
C403   C     0.06180   0.85490   0.83330   0.00000  Uiso   1.00
O404   O     0.06664   0.77649   0.77814   0.00000  Uiso   1.00
C405   C     0.03320   0.89970   0.84890   0.00000  Uiso   1.00
H406   H     0.99920   0.90720   0.83340   0.00000  Uiso   1.00
O407   O     0.99530   0.82870   0.77115   0.00000  Uiso   1.00
C408   C     0.05470   0.93330   0.88710   0.00000  Uiso   1.00
O409   O     0.97820   0.98450   0.88590   0.00000  Uiso   1.00
C410   C     0.10370   0.92460   0.91070   0.00000  Uiso   1.00
H411   H     0.11780   0.94890   0.93640   0.00000  Uiso   1.00
O412   O     0.04380   0.01230   0.93460   0.00000  Uiso   1.00
C413   C     0.18670   0.86750   0.92000   0.00000  Uiso   1.00
C414   C     0.04070   0.81820   0.79140   0.00000  Uiso   1.00
C415   C     0.63220   0.37870   0.39540   0.00000  Uiso   1.00
O416   O     0.70035   0.31915   0.42359   0.00000  Uiso   1.00
N417   N     0.52280   0.48040   0.40360   0.00000  Uiso   1.00
C418   C     0.61220   0.34420   0.35680   0.00000  Uiso   1.00
H419   H     0.63220   0.31360   0.34620   0.00000  Uiso   1.00
O420   O     0.71189   0.40705   0.43754   0.00000  Uiso   1.00
C421   C     0.56180   0.35490   0.33330   0.00000  Uiso   1.00
O422   O     0.56664   0.27649   0.27814   0.00000  Uiso   1.00
C423   C     0.53320   0.39970   0.34890   0.00000  Uiso   1.00
H424   H     0.49920   0.40720   0.33340   0.00000  Uiso   1.00
O425   O     0.49530   0.32870   0.27115   0.00000  Uiso   1.00
C426   C     0.55470   0.43330   0.38710   0.00000  Uiso   1.00
O427   O     0.47820   0.48450   0.38590   0.00000  Uiso   1.00
C428   C     0.60370   0.42460   0.41070   0.00000  Uiso   1.00
H429   H     0.61780   0.44890   0.43640   0.00000  Uiso   1.00
O430   O     0.54380   0.51230   0.43460   0.00000  Uiso   1.00
C431   C     0.68670   0.36750   0.42000   0.00000  Uiso   1.00
C432   C     0.54070   0.31820   0.29140   0.00000  Uiso   1.00
C433   C     0.61780   0.64540   0.37130   0.00000  Uiso   1.00
O434   O     0.54965   0.67359   0.43085   0.00000  Uiso   1.00
N435   N     0.72720   0.65360   0.26960   0.00000  Uiso   1.00
C436   C     0.63780   0.60680   0.40580   0.00000  Uiso   1.00
H437   H     0.61780   0.59620   0.43640   0.00000  Uiso   1.00
O438   O     0.53811   0.68754   0.34295   0.00000  Uiso   1.00
C439   C     0.68820   0.58330   0.39510   0.00000  Uiso   1.00
O440   O     0.68336   0.52814   0.47351   0.00000  Uiso   1.00
C441   C     0.71680   0.59890   0.35030   0.00000  Uiso   1.00
H442   H     0.75080   0.58340   0.34280   0.00000  Uiso   1.00
O443   O     0.75470   0.52115   0.42130   0.00000  Uiso   1.00
C444   C     0.69530   0.63710   0.31670   0.00000  Uiso   1.00
O445   O     0.77180   0.63590   0.26550   0.00000  Uiso   1.00
C446   C     0.64630   0.66070   0.32540   0.00000  Uiso   1.00
H447   H     0.63220   0.68640   0.30110   0.00000  Uiso   1.00
O448   O     0.70620   0.68460   0.23770   0.00000  Uiso   1.00
C449   C     0.56330   0.67000   0.38250   0.00000  Uiso   1.00
C450   C     0.70930   0.54140   0.43180   0.00000  Uiso   1.00
C451   C     0.11780   0.14540   0.87130   0.00000  Uiso   1.00
O452   O     0.04965   0.17359   0.93085   0.00000  Uiso   1.00
N453   N     0.22720   0.15360   0.76960   0.00000  Uiso   1.00
C454   C     0.13780   0.10680   0.90580   0.00000  Uiso   1.00
H455   H     0.11780   0.09620   0.93640   0.00000  Uiso   1.00
O456   O     0.03811   0.18754   0.84295   0.00000  Uiso   1.00
C457   C     0.18820   0.08330   0.89510   0.00000  Uiso   1.00
O458   O     0.18336   0.02814   0.97351   0.00000  Uiso   1.00
C459   C     0.21680   0.09890   0.85030   0.00000  Uiso   1.00
H460   H     0.25080   0.08340   0.84280   0.00000  Uiso   1.00
O461   O     0.25470   0.02115   0.92130   0.00000  Uiso   1.00
C462   C     0.19530   0.13710   0.81670   0.00000  Uiso   1.00
O463   O     0.27180   0.13590   0.76550   0.00000  Uiso   1.00
C464   C     0.14630   0.16070   0.82540   0.00000  Uiso   1.00
H465   H     0.13220   0.18640   0.80110   0.00000  Uiso   1.00
O466   O     0.20620   0.18460   0.73770   0.00000  Uiso   1.00
C467   C     0.06330   0.17000   0.88250   0.00000  Uiso   1.00
C468   C     0.20930   0.04140   0.93180   0.00000  Uiso   1.00
C469   C     0.88220   0.35460   0.87130   0.00000  Uiso   1.00
O470   O     0.95035   0.32641   0.93085   0.00000  Uiso   1.00
N471   N     0.77280   0.34640   0.76960   0.00000  Uiso   1.00
C472   C     0.86220   0.39320   0.90580   0.00000  Uiso   1.00
H473   H     0.88220   0.40380   0.93640   0.00000  Uiso   1.00
O474   O     0.96189   0.31246   0.84295   0.00000  Uiso   1.00
C475   C     0.81180   0.41670   0.89510   0.00000  Uiso   1.00
O476   O     0.81664   0.47186   0.97351   0.00000  Uiso   1.00
C477   C     0.78320   0.40110   0.85030   0.00000  Uiso   1.00
H478   H     0.74920   0.41660   0.84280   0.00000  Uiso   1.00
O479   O     0.74530   0.47885   0.92130   0.00000  Uiso   1.00
C480   C     0.80470   0.36290   0.81670   0.00000  Uiso   1.00
O481   O     0.72820   0.36410   0.76550   0.00000  Uiso   1.00
C482   C     0.85370   0.33930   0.82540   0.00000  Uiso   1.00
H483   H     0.86780   0.31360   0.80110   0.00000  Uiso   1.00
O484   O     0.79380   0.31540   0.73770   0.00000  Uiso   1.00
C485   C     0.93670   0.33000   0.88250   0.00000  Uiso   1.00
C486   C     0.79070   0.45860   0.93180   0.00000  Uiso   1.00
C487   C     0.38220   0.85460   0.37130   0.00000  Uiso   1.00
O488   O     0.45035   0.82641   0.43085   0.00000  Uiso   1.00
N489   N     0.27280   0.84640   0.26960   0.00000  Uiso   1.00
C490   C     0.36220   0.89320   0.40580   0.00000  Uiso   1.00
H491   H     0.38220   0.90380   0.43640   0.00000  Uiso   1.00
O492   O     0.46189   0.81246   0.34295   0.00000  Uiso   1.00
C493   C     0.31180   0.91670   0.39510   0.00000  Uiso   1.00
O494   O     0.31664   0.97186   0.47351   0.00000  Uiso   1.00
C495   C     0.28320   0.90110   0.35030   0.00000  Uiso   1.00
H496   H     0.24920   0.91660   0.34280   0.00000  Uiso   1.00
O497   O     0.24530   0.97885   0.42130   0.00000  Uiso   1.00
C498   C     0.30470   0.86290   0.31670   0.00000  Uiso   1.00
O499   O     0.22820   0.86410   0.26550   0.00000  Uiso   1.00
C500   C     0.35370   0.83930   0.32540   0.00000  Uiso   1.00
H501   H     0.36780   0.81360   0.30110   0.00000  Uiso   1.00
O502   O     0.29380   0.81540   0.23770   0.00000  Uiso   1.00
C503   C     0.43670   0.83000   0.38250   0.00000  Uiso   1.00
C504   C     0.29070   0.95860   0.43180   0.00000  Uiso   1.00
C505   C     0.11780   0.85460   0.62870   0.00000  Uiso   1.00
O506   O     0.04965   0.82641   0.56915   0.00000  Uiso   1.00
N507   N     0.22720   0.84640   0.73040   0.00000  Uiso   1.00
C508   C     0.13780   0.89320   0.59420   0.00000  Uiso   1.00
H509   H     0.11780   0.90380   0.56360   0.00000  Uiso   1.00
O510   O     0.03811   0.81246   0.65705   0.00000  Uiso   1.00
C511   C     0.18820   0.91670   0.60490   0.00000  Uiso   1.00
O512   O     0.18336   0.97186   0.52649   0.00000  Uiso   1.00
C513   C     0.21680   0.90110   0.64970   0.00000  Uiso   1.00
H514   H     0.25080   0.91660   0.65720   0.00000  Uiso   1.00
O515   O     0.25470   0.97885   0.57870   0.00000  Uiso   1.00
C516   C     0.19530   0.86290   0.68330   0.00000  Uiso   1.00
O517   O     0.27180   0.86410   0.73450   0.00000  Uiso   1.00
C518   C     0.14630   0.83930   0.67460   0.00000  Uiso   1.00
H519   H     0.13220   0.81360   0.69890   0.00000  Uiso   1.00
O520   O     0.20620   0.81540   0.76230   0.00000  Uiso   1.00
C521   C     0.06330   0.83000   0.61750   0.00000  Uiso   1.00
C522   C     0.20930   0.95860   0.56820   0.00000  Uiso   1.00
C523   C     0.61780   0.35460   0.12870   0.00000  Uiso   1.00
O524   O     0.54965   0.32641   0.06915   0.00000  Uiso   1.00
N525   N     0.72720   0.34640   0.23040   0.00000  Uiso   1.00
C526   C     0.63780   0.39320   0.09420   0.00000  Uiso   1.00
H527   H     0.61780   0.40380   0.06360   0.00000  Uiso   1.00
O528   O     0.53811   0.31246   0.15705   0.00000  Uiso   1.00
C529   C     0.68820   0.41670   0.10490   0.00000  Uiso   1.00
O530   O     0.68336   0.47186   0.02649   0.00000  Uiso   1.00
C531   C     0.71680   0.40110   0.14970   0.00000  Uiso   1.00
H532   H     0.75080   0.41660   0.15720   0.00000  Uiso   1.00
O533   O     0.75470   0.47885   0.07870   0.00000  Uiso   1.00
C534   C     0.69530   0.36290   0.18330   0.00000  Uiso   1.00
O535   O     0.77180   0.36410   0.23450   0.00000  Uiso   1.00
C536   C     0.64630   0.33930   0.17460   0.00000  Uiso   1.00
H537   H     0.63220   0.31360   0.19890   0.00000  Uiso   1.00
O538   O     0.70620   0.31540   0.26230   0.00000  Uiso   1.00
C539   C     0.56330   0.33000   0.11750   0.00000  Uiso   1.00
C540   C     0.70930   0.45860   0.06820   0.00000  Uiso   1.00
C541   C     0.38220   0.14540   0.12870   0.00000  Uiso   1.00
O542   O     0.45035   0.17359   0.06915   0.00000  Uiso   1.00
N543   N     0.27280   0.15360   0.23040   0.00000  Uiso   1.00
C544   C     0.36220   0.10680   0.09420   0.00000  Uiso   1.00
H545   H     0.38220   0.09620   0.06360   0.00000  Uiso   1.00
O546   O     0.46189   0.18754   0.15705   0.00000  Uiso   1.00
C547   C     0.31180   0.08330   0.10490   0.00000  Uiso   1.00
O548   O     0.31664   0.02814   0.02649   0.00000  Uiso   1.00
C549   C     0.28320   0.09890   0.14970   0.00000  Uiso   1.00
H550   H     0.24920   0.08340   0.15720   0.00000  Uiso   1.00
O551   O     0.24530   0.02115   0.07870   0.00000  Uiso   1.00
C552   C     0.30470   0.13710   0.18330   0.00000  Uiso   1.00
O553   O     0.22820   0.13590   0.23450   0.00000  Uiso   1.00
C554   C     0.35370   0.16070   0.17460   0.00000  Uiso   1.00
H555   H     0.36780   0.18640   0.19890   0.00000  Uiso   1.00
O556   O     0.29380   0.18460   0.26230   0.00000  Uiso   1.00
C557   C     0.43670   0.17000   0.11750   0.00000  Uiso   1.00
C558   C     0.29070   0.04140   0.06820   0.00000  Uiso   1.00
C559   C     0.88220   0.64540   0.62870   0.00000  Uiso   1.00
O560   O     0.95035   0.67359   0.56915   0.00000  Uiso   1.00
N561   N     0.77280   0.65360   0.73040   0.00000  Uiso   1.00
C562   C     0.86220   0.60680   0.59420   0.00000  Uiso   1.00
H563   H     0.88220   0.59620   0.56360   0.00000  Uiso   1.00
O564   O     0.96189   0.68754   0.65705   0.00000  Uiso   1.00
C565   C     0.81180   0.58330   0.60490   0.00000  Uiso   1.00
O566   O     0.81664   0.52814   0.52649   0.00000  Uiso   1.00
C567   C     0.78320   0.59890   0.64970   0.00000  Uiso   1.00
H568   H     0.74920   0.58340   0.65720   0.00000  Uiso   1.00
O569   O     0.74530   0.52115   0.57870   0.00000  Uiso   1.00
C570   C     0.80470   0.63710   0.68330   0.00000  Uiso   1.00
O571   O     0.72820   0.63590   0.73450   0.00000  Uiso   1.00
C572   C     0.85370   0.66070   0.67460   0.00000  Uiso   1.00
H573   H     0.86780   0.68640   0.69890   0.00000  Uiso   1.00
O574   O     0.79380   0.68460   0.76230   0.00000  Uiso   1.00
C575   C     0.93670   0.67000   0.61750   0.00000  Uiso   1.00
C576   C     0.79070   0.54140   0.56820   0.00000  Uiso   1.00
C577   C     0.64540   0.37130   0.61780   0.00000  Uiso   1.00
O578   O     0.67359   0.43085   0.54965   0.00000  Uiso   1.00
N579   N     0.65360   0.26960   0.72720   0.00000  Uiso   1.00
C580   C     0.60680   0.40580   0.63780   0.00000  Uiso   1.00
H581   H     0.59620   0.43640   0.61780   0.00000  Uiso   1.00
O582   O     0.68754   0.34295   0.53811   0.00000  Uiso   1.00
C583   C     0.58330   0.39510   0.68820   0.00000  Uiso   1.00
O584   O     0.52814   0.47351   0.68336   0.00000  Uiso   1.00
C585   C     0.59890   0.35030   0.71680   0.00000  Uiso   1.00
H586   H     0.58340   0.34280   0.75080   0.00000  Uiso   1.00
O587   O     0.52115   0.42130   0.75470   0.00000  Uiso   1.00
C588   C     0.63710   0.31670   0.69530   0.00000  Uiso   1.00
O589   O     0.63590   0.26550   0.77180   0.00000  Uiso   1.00
C590   C     0.66070   0.32540   0.64630   0.00000  Uiso   1.00
H591   H     0.68640   0.30110   0.63220   0.00000  Uiso   1.00
O592   O     0.68460   0.23770   0.70620   0.00000  Uiso   1.00
C593   C     0.67000   0.38250   0.56330   0.00000  Uiso   1.00
C594   C     0.54140   0.43180   0.70930   0.00000  Uiso   1.00
C595   C     0.14540   0.87130   0.11780   0.00000  Uiso   1.00
O596   O     0.17359   0.93085   0.04965   0.00000  Uiso   1.00
N597   N     0.15360   0.76960   0.22720   0.00000  Uiso   1.00
C598   C     0.10680   0.90580   0.13780   0.00000  Uiso   1.00
H599   H     0.09620   0.93640   0.11780   0.00000  Uiso   1.00
O600   O     0.18754   0.84295   0.03811   0.00000  Uiso   1.00
C601   C     0.08330   0.89510   0.18820   0.00000  Uiso   1.00
O602   O     0.02814   0.97351   0.18336   0.00000  Uiso   1.00
C603   C     0.09890   0.85030   0.21680   0.00000  Uiso   1.00
H604   H     0.08340   0.84280   0.25080   0.00000  Uiso   1.00
O605   O     0.02115   0.92130   0.25470   0.00000  Uiso   1.00
C606   C     0.13710   0.81670   0.19530   0.00000  Uiso   1.00
O607   O     0.13590   0.76550   0.27180   0.00000  Uiso   1.00
C608   C     0.16070   0.82540   0.14630   0.00000  Uiso   1.00
H609   H     0.18640   0.80110   0.13220   0.00000  Uiso   1.00
O610   O     0.18460   0.73770   0.20620   0.00000  Uiso   1.00
C611   C     0.17000   0.88250   0.06330   0.00000  Uiso   1.00
C612   C     0.04140   0.93180   0.20930   0.00000  Uiso   1.00
C613   C     0.35460   0.87130   0.88220   0.00000  Uiso   1.00
O614   O     0.32641   0.93085   0.95035   0.00000  Uiso   1.00
N615   N     0.34640   0.76960   0.77280   0.00000  Uiso   1.00
C616   C     0.39320   0.90580   0.86220   0.00000  Uiso   1.00
H617   H     0.40380   0.93640   0.88220   0.00000  Uiso   1.00
O618   O     0.31246   0.84295   0.96189   0.00000  Uiso   1.00
C619   C     0.41670   0.89510   0.81180   0.00000  Uiso   1.00
O620   O     0.47186   0.97351   0.81664   0.00000  Uiso   1.00
C621   C     0.40110   0.85030   0.78320   0.00000  Uiso   1.00
H622   H     0.41660   0.84280   0.74920   0.00000  Uiso   1.00
O623   O     0.47885   0.92130   0.74530   0.00000  Uiso   1.00
C624   C     0.36290   0.81670   0.80470   0.00000  Uiso   1.00
O625   O     0.36410   0.76550   0.72820   0.00000  Uiso   1.00
C626   C     0.33930   0.82540   0.85370   0.00000  Uiso   1.00
H627   H     0.31360   0.80110   0.86780   0.00000  Uiso   1.00
O628   O     0.31540   0.73770   0.79380   0.00000  Uiso   1.00
C629   C     0.33000   0.88250   0.93670   0.00000  Uiso   1.00
C630   C     0.45860   0.93180   0.79070   0.00000  Uiso   1.00
C631   C     0.85460   0.37130   0.38220   0.00000  Uiso   1.00
O632   O     0.82641   0.43085   0.45035   0.00000  Uiso   1.00
N633   N     0.84640   0.26960   0.27280   0.00000  Uiso   1.00
C634   C     0.89320   0.40580   0.36220   0.00000  Uiso   1.00
H635   H     0.90380   0.43640   0.38220   0.00000  Uiso   1.00
O636   O     0.81246   0.34295   0.46189   0.00000  Uiso   1.00
C637   C     0.91670   0.39510   0.31180   0.00000  Uiso   1.00
O638   O     0.97186   0.47351   0.31664   0.00000  Uiso   1.00
C639   C     0.90110   0.35030   0.28320   0.00000  Uiso   1.00
H640   H     0.91660   0.34280   0.24920   0.00000  Uiso   1.00
O641   O     0.97885   0.42130   0.24530   0.00000  Uiso   1.00
C642   C     0.86290   0.31670   0.30470   0.00000  Uiso   1.00
O643   O     0.86410   0.26550   0.22820   0.00000  Uiso   1.00
C644   C     0.83930   0.32540   0.35370   0.00000  Uiso   1.00
H645   H     0.81360   0.30110   0.36780   0.00000  Uiso   1.00
O646   O     0.81540   0.23770   0.29380   0.00000  Uiso   1.00
C647   C     0.83000   0.38250   0.43670   0.00000  Uiso   1.00
C648   C     0.95860   0.43180   0.29070   0.00000  Uiso   1.00
C649   C     0.85460   0.62870   0.11780   0.00000  Uiso   1.00
O650   O     0.82641   0.56915   0.04965   0.00000  Uiso   1.00
N651   N     0.84640   0.73040   0.22720   0.00000  Uiso   1.00
C652   C     0.89320   0.59420   0.13780   0.00000  Uiso   1.00
H653   H     0.90380   0.56360   0.11780   0.00000  Uiso   1.00
O654   O     0.81246   0.65705   0.03811   0.00000  Uiso   1.00
C655   C     0.91670   0.60490   0.18820   0.00000  Uiso   1.00
O656   O     0.97186   0.52649   0.18336   0.00000  Uiso   1.00
C657   C     0.90110   0.64970   0.21680   0.00000  Uiso   1.00
H658   H     0.91660   0.65720   0.25080   0.00000  Uiso   1.00
O659   O     0.97885   0.57870   0.25470   0.00000  Uiso   1.00
C660   C     0.86290   0.68330   0.19530   0.00000  Uiso   1.00
O661   O     0.86410   0.73450   0.27180   0.00000  Uiso   1.00
C662   C     0.83930   0.67460   0.14630   0.00000  Uiso   1.00
H663   H     0.81360   0.69890   0.13220   0.00000  Uiso   1.00
O664   O     0.81540   0.76230   0.20620   0.00000  Uiso   1.00
C665   C     0.83000   0.61750   0.06330   0.00000  Uiso   1.00
C666   C     0.95860   0.56820   0.20930   0.00000  Uiso   1.00
C667   C     0.35460   0.12870   0.61780   0.00000  Uiso   1.00
O668   O     0.32641   0.06915   0.54965   0.00000  Uiso   1.00
N669   N     0.34640   0.23040   0.72720   0.00000  Uiso   1.00
C670   C     0.39320   0.09420   0.63780   0.00000  Uiso   1.00
H671   H     0.40380   0.06360   0.61780   0.00000  Uiso   1.00
O672   O     0.31246   0.15705   0.53811   0.00000  Uiso   1.00
C673   C     0.41670   0.10490   0.68820   0.00000  Uiso   1.00
O674   O     0.47186   0.02649   0.68336   0.00000  Uiso   1.00
C675   C     0.40110   0.14970   0.71680   0.00000  Uiso   1.00
H676   H     0.41660   0.15720   0.75080   0.00000  Uiso   1.00
O677   O     0.47885   0.07870   0.75470   0.00000  Uiso   1.00
C678   C     0.36290   0.18330   0.69530   0.00000  Uiso   1.00
O679   O     0.36410   0.23450   0.77180   0.00000  Uiso   1.00
C680   C     0.33930   0.17460   0.64630   0.00000  Uiso   1.00
H681   H     0.31360   0.19890   0.63220   0.00000  Uiso   1.00
O682   O     0.31540   0.26230   0.70620   0.00000  Uiso   1.00
C683   C     0.33000   0.11750   0.56330   0.00000  Uiso   1.00
C684   C     0.45860   0.06820   0.70930   0.00000  Uiso   1.00
C685   C     0.14540   0.12870   0.38220   0.00000  Uiso   1.00
O686   O     0.17359   0.06915   0.45035   0.00000  Uiso   1.00
N687   N     0.15360   0.23040   0.27280   0.00000  Uiso   1.00
C688   C     0.10680   0.09420   0.36220   0.00000  Uiso   1.00
H689   H     0.09620   0.06360   0.38220   0.00000  Uiso   1.00
O690   O     0.18754   0.15705   0.46189   0.00000  Uiso   1.00
C691   C     0.08330   0.10490   0.31180   0.00000  Uiso   1.00
O692   O     0.02814   0.02649   0.31664   0.00000  Uiso   1.00
C693   C     0.09890   0.14970   0.28320   0.00000  Uiso   1.00
H694   H     0.08340   0.15720   0.24920   0.00000  Uiso   1.00
O695   O     0.02115   0.07870   0.24530   0.00000  Uiso   1.00
C696   C     0.13710   0.18330   0.30470   0.00000  Uiso   1.00
O697   O     0.13590   0.23450   0.22820   0.00000  Uiso   1.00
C698   C     0.16070   0.17460   0.35370   0.00000  Uiso   1.00
H699   H     0.18640   0.19890   0.36780   0.00000  Uiso   1.00
O700   O     0.18460   0.26230   0.29380   0.00000  Uiso   1.00
C701   C     0.17000   0.11750   0.43670   0.00000  Uiso   1.00
C702   C     0.04140   0.06820   0.29070   0.00000  Uiso   1.00
C703   C     0.64540   0.62870   0.88220   0.00000  Uiso   1.00
O704   O     0.67359   0.56915   0.95035   0.00000  Uiso   1.00
N705   N     0.65360   0.73040   0.77280   0.00000  Uiso   1.00
C706   C     0.60680   0.59420   0.86220   0.00000  Uiso   1.00
H707   H     0.59620   0.56360   0.88220   0.00000  Uiso   1.00
O708   O     0.68754   0.65705   0.96189   0.00000  Uiso   1.00
C709   C     0.58330   0.60490   0.81180   0.00000  Uiso   1.00
O710   O     0.52814   0.52649   0.81664   0.00000  Uiso   1.00
C711   C     0.59890   0.64970   0.78320   0.00000  Uiso   1.00
H712   H     0.58340   0.65720   0.74920   0.00000  Uiso   1.00
O713   O     0.52115   0.57870   0.74530   0.00000  Uiso   1.00
C714   C     0.63710   0.68330   0.80470   0.00000  Uiso   1.00
O715   O     0.63590   0.73450   0.72820   0.00000  Uiso   1.00
C716   C     0.66070   0.67460   0.85370   0.00000  Uiso   1.00
H717   H     0.68640   0.69890   0.86780   0.00000  Uiso   1.00
O718   O     0.68460   0.76230   0.79380   0.00000  Uiso   1.00
C719   C     0.67000   0.61750   0.93670   0.00000  Uiso   1.00
C720   C     0.54140   0.56820   0.79070   0.00000  Uiso   1.00
C721   C     0.37130   0.61780   0.64540   0.00000  Uiso   1.00
O722   O     0.43085   0.54965   0.67359   0.00000  Uiso   1.00
N723   N     0.26960   0.72720   0.65360   0.00000  Uiso   1.00
C724   C     0.40580   0.63780   0.60680   0.00000  Uiso   1.00
H725   H     0.43640   0.61780   0.59620   0.00000  Uiso   1.00
O726   O     0.34295   0.53811   0.68754   0.00000  Uiso   1.00
C727   C     0.39510   0.68820   0.58330   0.00000  Uiso   1.00
O728   O     0.47351   0.68336   0.52814   0.00000  Uiso   1.00
C729   C     0.35030   0.71680   0.59890   0.00000  Uiso   1.00
H730   H     0.34280   0.75080   0.58340   0.00000  Uiso   1.00
O731   O     0.42130   0.75470   0.52115   0.00000  Uiso   1.00
C732   C     0.31670   0.69530   0.63710   0.00000  Uiso   1.00
O733   O     0.26550   0.77180   0.63590   0.00000  Uiso   1.00
C734   C     0.32540   0.64630   0.66070   0.00000  Uiso   1.00
H735   H     0.30110   0.63220   0.68640   0.00000  Uiso   1.00
O736   O     0.23770   0.70620   0.68460   0.00000  Uiso   1.00
C737   C     0.38250   0.56330   0.67000   0.00000  Uiso   1.00
C738   C     0.43180   0.70930   0.54140   0.00000  Uiso   1.00
C739   C     0.87130   0.11780   0.14540   0.00000  Uiso   1.00
O740   O     0.93085   0.04965   0.17359   0.00000  Uiso   1.00
N741   N     0.76960   0.22720   0.15360   0.00000  Uiso   1.00
C742   C     0.90580   0.13780   0.10680   0.00000  Uiso   1.00
H743   H     0.93640   0.11780   0.09620   0.00000  Uiso   1.00
O744   O     0.84295   0.03811   0.18754   0.00000  Uiso   1.00
C745   C     0.89510   0.18820   0.08330   0.00000  Uiso   1.00
O746   O     0.97351   0.18336   0.02814   0.00000  Uiso   1.00
C747   C     0.85030   0.21680   0.09890   0.00000  Uiso   1.00
H748   H     0.84280   0.25080   0.08340   0.00000  Uiso   1.00
O749   O     0.92130   0.25470   0.02115   0.00000  Uiso   1.00
C750   C     0.81670   0.19530   0.13710   0.00000  Uiso   1.00
O751   O     0.76550   0.27180   0.13590   0.00000  Uiso   1.00
C752   C     0.82540   0.14630   0.16070   0.00000  Uiso   1.00
H753   H     0.80110   0.13220   0.18640   0.00000  Uiso   1.00
O754   O     0.73770   0.20620   0.18460   0.00000  Uiso   1.00
C755   C     0.88250   0.06330   0.17000   0.00000  Uiso   1.00
C756   C     0.93180   0.20930   0.04140   0.00000  Uiso   1.00
C757   C     0.87130   0.88220   0.35460   0.00000  Uiso   1.00
O758   O     0.93085   0.95035   0.32641   0.00000  Uiso   1.00
N759   N     0.76960   0.77280   0.34640   0.00000  Uiso   1.00
C760   C     0.90580   0.86220   0.39320   0.00000  Uiso   1.00
H761   H     0.93640   0.88220   0.40380   0.00000  Uiso   1.00
O762   O     0.84295   0.96189   0.31246   0.00000  Uiso   1.00
C763   C     0.89510   0.81180   0.41670   0.00000  Uiso   1.00
O764   O     0.97351   0.81664   0.47186   0.00000  Uiso   1.00
C765   C     0.85030   0.78320   0.40110   0.00000  Uiso   1.00
H766   H     0.84280   0.74920   0.41660   0.00000  Uiso   1.00
O767   O     0.92130   0.74530   0.47885   0.00000  Uiso   1.00
C768   C     0.81670   0.80470   0.36290   0.00000  Uiso   1.00
O769   O     0.76550   0.72820   0.36410   0.00000  Uiso   1.00
C770   C     0.82540   0.85370   0.33930   0.00000  Uiso   1.00
H771   H     0.80110   0.86780   0.31360   0.00000  Uiso   1.00
O772   O     0.73770   0.79380   0.31540   0.00000  Uiso   1.00
C773   C     0.88250   0.93670   0.33000   0.00000  Uiso   1.00
C774   C     0.93180   0.79070   0.45860   0.00000  Uiso   1.00
C775   C     0.37130   0.38220   0.85460   0.00000  Uiso   1.00
O776   O     0.43085   0.45035   0.82641   0.00000  Uiso   1.00
N777   N     0.26960   0.27280   0.84640   0.00000  Uiso   1.00
C778   C     0.40580   0.36220   0.89320   0.00000  Uiso   1.00
H779   H     0.43640   0.38220   0.90380   0.00000  Uiso   1.00
O780   O     0.34295   0.46189   0.81246   0.00000  Uiso   1.00
C781   C     0.39510   0.31180   0.91670   0.00000  Uiso   1.00
O782   O     0.47351   0.31664   0.97186   0.00000  Uiso   1.00
C783   C     0.35030   0.28320   0.90110   0.00000  Uiso   1.00
H784   H     0.34280   0.24920   0.91660   0.00000  Uiso   1.00
O785   O     0.42130   0.24530   0.97885   0.00000  Uiso   1.00
C786   C     0.31670   0.30470   0.86290   0.00000  Uiso   1.00
O787   O     0.26550   0.22820   0.86410   0.00000  Uiso   1.00
C788   C     0.32540   0.35370   0.83930   0.00000  Uiso   1.00
H789   H     0.30110   0.36780   0.81360   0.00000  Uiso   1.00
O790   O     0.23770   0.29380   0.81540   0.00000  Uiso   1.00
C791   C     0.38250   0.43670   0.83000   0.00000  Uiso   1.00
C792   C     0.43180   0.29070   0.95860   0.00000  Uiso   1.00
C793   C     0.62870   0.11780   0.85460   0.00000  Uiso   1.00
O794   O     0.56915   0.04965   0.82641   0.00000  Uiso   1.00
N795   N     0.73040   0.22720   0.84640   0.00000  Uiso   1.00
C796   C     0.59420   0.13780   0.89320   0.00000  Uiso   1.00
H797   H     0.56360   0.11780   0.90380   0.00000  Uiso   1.00
O798   O     0.65705   0.03811   0.81246   0.00000  Uiso   1.00
C799   C     0.60490   0.18820   0.91670   0.00000  Uiso   1.00
O800   O     0.52649   0.18336   0.97186   0.00000  Uiso   1.00
C801   C     0.64970   0.21680   0.90110   0.00000  Uiso   1.00
H802   H     0.65720   0.25080   0.91660   0.00000  Uiso   1.00
O803   O     0.57870   0.25470   0.97885   0.00000  Uiso   1.00
C804   C     0.68330   0.19530   0.86290   0.00000  Uiso   1.00
O805   O     0.73450   0.27180   0.86410   0.00000  Uiso   1.00
C806   C     0.67460   0.14630   0.83930   0.00000  Uiso   1.00
H807   H     0.69890   0.13220   0.81360   0.00000  Uiso   1.00
O808   O     0.76230   0.20620   0.81540   0.00000  Uiso   1.00
C809   C     0.61750   0.06330   0.83000   0.00000  Uiso   1.00
C810   C     0.56820   0.20930   0.95860   0.00000  Uiso   1.00
C811   C     0.12870   0.61780   0.35460   0.00000  Uiso   1.00
O812   O     0.06915   0.54965   0.32641   0.00000  Uiso   1.00
N813   N     0.23040   0.72720   0.34640   0.00000  Uiso   1.00
C814   C     0.09420   0.63780   0.39320   0.00000  Uiso   1.00
H815   H     0.06360   0.61780   0.40380   0.00000  Uiso   1.00
O816   O     0.15705   0.53811   0.31246   0.00000  Uiso   1.00
C817   C     0.10490   0.68820   0.41670   0.00000  Uiso   1.00
O818   O     0.02649   0.68336   0.47186   0.00000  Uiso   1.00
C819   C     0.14970   0.71680   0.40110   0.00000  Uiso   1.00
H820   H     0.15720   0.75080   0.41660   0.00000  Uiso   1.00
O821   O     0.07870   0.75470   0.47885   0.00000  Uiso   1.00
C822   C     0.18330   0.69530   0.36290   0.00000  Uiso   1.00
O823   O     0.23450   0.77180   0.36410   0.00000  Uiso   1.00
C824   C     0.17460   0.64630   0.33930   0.00000  Uiso   1.00
H825   H     0.19890   0.63220   0.31360   0.00000  Uiso   1.00
O826   O     0.26230   0.70620   0.31540   0.00000  Uiso   1.00
C827   C     0.11750   0.56330   0.33000   0.00000  Uiso   1.00
C828   C     0.06820   0.70930   0.45860   0.00000  Uiso   1.00
C829   C     0.12870   0.38220   0.14540   0.00000  Uiso   1.00
O830   O     0.06915   0.45035   0.17359   0.00000  Uiso   1.00
N831   N     0.23040   0.27280   0.15360   0.00000  Uiso   1.00
C832   C     0.09420   0.36220   0.10680   0.00000  Uiso   1.00
H833   H     0.06360   0.38220   0.09620   0.00000  Uiso   1.00
O834   O     0.15705   0.46189   0.18754   0.00000  Uiso   1.00
C835   C     0.10490   0.31180   0.08330   0.00000  Uiso   1.00
O836   O     0.02649   0.31664   0.02814   0.00000  Uiso   1.00
C837   C     0.14970   0.28320   0.09890   0.00000  Uiso   1.00
H838   H     0.15720   0.24920   0.08340   0.00000  Uiso   1.00
O839   O     0.07870   0.24530   0.02115   0.00000  Uiso   1.00
C840   C     0.18330   0.30470   0.13710   0.00000  Uiso   1.00
O841   O     0.23450   0.22820   0.13590   0.00000  Uiso   1.00
C842   C     0.17460   0.35370   0.16070   0.00000  Uiso   1.00
H843   H     0.19890   0.36780   0.18640   0.00000  Uiso   1.00
O844   O     0.26230   0.29380   0.18460   0.00000  Uiso   1.00
C845   C     0.11750   0.43670   0.17000   0.00000  Uiso   1.00
C846   C     0.06820   0.29070   0.04140   0.00000  Uiso   1.00
C847   C     0.62870   0.88220   0.64540   0.00000  Uiso   1.00
O848   O     0.56915   0.95035   0.67359   0.00000  Uiso   1.00
N849   N     0.73040   0.77280   0.65360   0.00000  Uiso   1.00
C850   C     0.59420   0.86220   0.60680   0.00000  Uiso   1.00
H851   H     0.56360   0.88220   0.59620   0.00000  Uiso   1.00
O852   O     0.65705   0.96189   0.68754   0.00000  Uiso   1.00
C853   C     0.60490   0.81180   0.58330   0.00000  Uiso   1.00
O854   O     0.52649   0.81664   0.52814   0.00000  Uiso   1.00
C855   C     0.64970   0.78320   0.59890   0.00000  Uiso   1.00
H856   H     0.65720   0.74920   0.58340   0.00000  Uiso   1.00
O857   O     0.57870   0.74530   0.52115   0.00000  Uiso   1.00
C858   C     0.68330   0.80470   0.63710   0.00000  Uiso   1.00
O859   O     0.73450   0.72820   0.63590   0.00000  Uiso   1.00
C860   C     0.67460   0.85370   0.66070   0.00000  Uiso   1.00
H861   H     0.69890   0.86780   0.68640   0.00000  Uiso   1.00
O862   O     0.76230   0.79380   0.68460   0.00000  Uiso   1.00
C863   C     0.61750   0.93670   0.67000   0.00000  Uiso   1.00
C864   C     0.56820   0.79070   0.54140   0.00000  Uiso   1.00
Gd865  Gd    0.50000   0.25000   0.03779   0.00000  Uiso   1.00
Gd866  Gd    0.00000   0.75000   0.53779   0.00000  Uiso   1.00
Gd867  Gd    0.50000   0.75000   0.46221   0.00000  Uiso   1.00
Gd868  Gd   -0.00000   0.25000   0.96221   0.00000  Uiso   1.00
Gd869  Gd    0.03779   0.50000   0.25000   0.00000  Uiso   1.00
Gd870  Gd    0.53779   0.00000   0.75000   0.00000  Uiso   1.00
Gd871  Gd    0.46221   0.50000   0.75000   0.00000  Uiso   1.00
Gd872  Gd    0.96221  -0.00000   0.25000   0.00000  Uiso   1.00
Gd873  Gd    0.25000   0.03779   0.50000   0.00000  Uiso   1.00
Gd874  Gd    0.75000   0.53779   0.00000   0.00000  Uiso   1.00
Gd875  Gd    0.75000   0.46221   0.50000   0.00000  Uiso   1.00
Gd876  Gd    0.25000   0.96221  -0.00000   0.00000  Uiso   1.00
Gd877  Gd    0.50000   0.75000   0.28779   0.00000  Uiso   1.00
Gd878  Gd   -0.00000   0.25000   0.78779   0.00000  Uiso   1.00
Gd879  Gd    0.00000   0.75000   0.71221   0.00000  Uiso   1.00
Gd880  Gd    0.50000   0.25000   0.21221   0.00000  Uiso   1.00
Gd881  Gd    0.75000   0.28779   0.50000   0.00000  Uiso   1.00
Gd882  Gd    0.25000   0.78779  -0.00000   0.00000  Uiso   1.00
Gd883  Gd    0.75000   0.71221   0.00000   0.00000  Uiso   1.00
Gd884  Gd    0.25000   0.21221   0.50000   0.00000  Uiso   1.00
Gd885  Gd    0.28779   0.50000   0.75000   0.00000  Uiso   1.00
Gd886  Gd    0.78779  -0.00000   0.25000   0.00000  Uiso   1.00
Gd887  Gd    0.71221   0.00000   0.75000   0.00000  Uiso   1.00
Gd888  Gd    0.21221   0.50000   0.25000   0.00000  Uiso   1.00
loop_
_geom_bond_atom_site_label_1
_geom_bond_atom_site_label_2
_geom_bond_distance
_geom_bond_site_symmetry_2
_ccdc_geom_bond_type
C1     C4      1.385   .     S
C1     C14     1.402   .     S
C1     C17     1.519   .     S
O2     C17     1.257   .     S
O2     Gd880   2.406   .     S
N3     C12     1.479   .     S
N3     O13     1.202   .     S
N3     O16     1.228   1_554 S
C4     H5      0.950   .     S
C4     C7      1.414   .     S
O6     Gd865   2.287   .     S
O6     C17     1.250   .     S
C7     C9      1.383   .     S
C7     C18     1.487   .     S
O8     C18     1.270   .     S
O8     Gd888   2.432   .     S
C9     H10     0.951   .     S
C9     C12     1.379   .     S
O11    C18     1.268   .     S
O11    Gd888   2.457   .     S
C12    C14     1.375   .     S
C14    H15     0.951   .     S
O16    N3      1.228   1_556 S
C19    C22     1.385   .     S
C19    C32     1.402   .     S
C19    C35     1.519   .     S
O20    C35     1.257   .     S
O20    Gd879   2.406   1_655 S
N21    C30     1.479   .     S
N21    O31     1.202   1_565 S
N21    O34     1.228   .     S
C22    H23     0.950   .     S
C22    C25     1.414   .     S
O24    Gd866   2.287   1_655 S
O24    C35     1.250   .     S
C25    C27     1.383   .     S
C25    C36     1.487   .     S
O26    C36     1.270   .     S
O26    Gd887   2.432   1_565 S
C27    H28     0.951   1_565 S
C27    C30     1.379   .     S
H28    C27     0.951   1_545 S
O29    C36     1.268   1_545 S
O29    Gd887   2.457   .     S
C30    C32     1.375   .     S
O31    N21     1.202   1_545 S
C32    H33     0.951   .     S
C36    O29     1.268   1_565 S
C37    C40     1.385   .     S
C37    C50     1.402   .     S
C37    C53     1.519   .     S
O38    C53     1.257   .     S
O38    Gd879   2.406   .     S
N39    C48     1.479   .     S
N39    O49     1.202   .     S
N39    O52     1.228   .     S
C40    H41     0.950   .     S
C40    C43     1.414   .     S
O42    Gd866   2.287   .     S
O42    C53     1.250   .     S
C43    C45     1.383   .     S
C43    C54     1.487   .     S
O44    C54     1.270   .     S
O44    Gd885   2.432   .     S
C45    H46     0.951   .     S
C45    C48     1.379   .     S
O47    C54     1.268   .     S
O47    Gd885   2.457   .     S
C48    C50     1.375   .     S
C50    H51     0.951   .     S
C55    C58     1.385   .     S
C55    C68     1.402   .     S
C55    C71     1.519   .     S
O56    C71     1.257   .     S
O56    Gd880   2.406   .     S
N57    C66     1.479   .     S
N57    O67     1.202   1_545 S
N57    O70     1.228   1_554 S
C58    H59     0.950   .     S
C58    C61     1.414   .     S
O60    Gd865   2.287   .     S
O60    C71     1.250   .     S
C61    C63     1.383   .     S
C61    C72     1.487   .     S
O62    C72     1.270   .     S
O62    Gd886   2.432   .     S
C63    H64     0.951   1_545 S
C63    C66     1.379   .     S
H64    C63     0.951   1_565 S
O65    C72     1.268   1_565 S
O65    Gd886   2.457   1_565 S
C66    C68     1.375   .     S
O67    N57     1.202   1_565 S
C68    H69     0.951   .     S
O70    N57     1.228   1_556 S
C72    O65     1.268   1_545 S
C73    C76     1.385   .     S
C73    C86     1.402   .     S
C73    C89     1.519   .     S
O74    C89     1.257   .     S
O74    Gd877   2.406   .     S
N75    C84     1.479   .     S
N75    O85     1.202   1_565 S
N75    O88     1.228   .     S
C76    H77     0.950   .     S
C76    C79     1.414   .     S
O78    Gd867   2.287   .     S
O78    C89     1.250   .     S
C79    C81     1.383   .     S
C79    C90     1.487   .     S
O80    C90     1.270   .     S
O80    Gd886   2.432   1_565 S
C81    H82     0.951   1_565 S
C81    C84     1.379   .     S
H82    C81     0.951   1_545 S
O83    C90     1.268   1_545 S
O83    Gd886   2.457   .     S
C84    C86     1.375   .     S
O85    N75     1.202   1_545 S
C86    H87     0.951   .     S
C90    O83     1.268   1_565 S
C91    C94     1.385   .     S
C91    C104    1.402   .     S
C91    C107    1.519   .     S
O92    C107    1.257   .     S
O92    Gd878   2.406   .     S
N93    C102    1.479   .     S
N93    O103    1.202   .     S
N93    O106    1.228   1_556 S
C94    H95     0.950   .     S
C94    C97     1.414   .     S
O96    Gd868   2.287   .     S
O96    C107    1.250   .     S
C97    C99     1.383   .     S
C97    C108    1.487   .     S
O98    C108    1.270   .     S
O98    Gd885   2.432   .     S
C99    H100    0.951   .     S
C99    C102    1.379   .     S
O101   C108    1.268   .     S
O101   Gd885   2.457   .     S
C102   C104    1.375   .     S
C104   H105    0.951   .     S
O106   N93     1.228   1_554 S
C109   C112    1.385   .     S
C109   C122    1.402   .     S
C109   C125    1.519   .     S
O110   C125    1.257   .     S
O110   Gd878   2.406   1_655 S
N111   C120    1.479   .     S
N111   O121    1.202   1_545 S
N111   O124    1.228   1_556 S
C112   H113    0.950   .     S
C112   C115    1.414   .     S
O114   Gd868   2.287   1_655 S
O114   C125    1.250   .     S
C115   C117    1.383   .     S
C115   C126    1.487   .     S
O116   C126    1.270   .     S
O116   Gd887   2.432   .     S
C117   H118    0.951   1_545 S
C117   C120    1.379   .     S
H118   C117    0.951   1_565 S
O119   C126    1.268   1_565 S
O119   Gd887   2.457   1_565 S
C120   C122    1.375   .     S
O121   N111    1.202   1_565 S
C122   H123    0.951   .     S
O124   N111    1.228   1_554 S
C126   O119    1.268   1_545 S
C127   C130    1.385   .     S
C127   C140    1.402   .     S
C127   C143    1.519   .     S
O128   C143    1.257   .     S
O128   Gd877   2.406   .     S
N129   C138    1.479   .     S
N129   O139    1.202   .     S
N129   O142    1.228   .     S
C130   H131    0.950   .     S
C130   C133    1.414   .     S
O132   Gd867   2.287   .     S
O132   C143    1.250   .     S
C133   C135    1.383   .     S
C133   C144    1.487   .     S
O134   C144    1.270   .     S
O134   Gd888   2.432   .     S
C135   H136    0.951   .     S
C135   C138    1.379   .     S
O137   C144    1.268   .     S
O137   Gd888   2.457   .     S
C138   C140    1.375   .     S
C140   H141    0.951   .     S
C145   C148    1.385   .     S
C145   C158    1.402   .     S
C145   C161    1.519   .     S
O146   C161    1.257   .     S
O146   Gd888   2.406   .     S
N147   C156    1.479   .     S
N147   O157    1.202   .     S
N147   O160    1.228   1_455 S
C148   H149    0.950   .     S
C148   C151    1.414   .     S
O150   Gd869   2.287   .     S
O150   C161    1.250   .     S
C151   C153    1.383   .     S
C151   C162    1.487   .     S
O152   C162    1.270   .     S
O152   Gd884   2.432   .     S
C153   H154    0.951   .     S
C153   C156    1.379   .     S
O155   C162    1.268   .     S
O155   Gd884   2.457   .     S
C156   C158    1.375   .     S
C158   H159    0.951   .     S
O160   N147    1.228   1_655 S
C163   C166    1.385   .     S
C163   C176    1.402   .     S
C163   C179    1.519   .     S
O164   C179    1.257   .     S
O164   Gd887   2.406   1_565 S
N165   C174    1.479   .     S
N165   O175    1.202   1_556 S
N165   O178    1.228   .     S
C166   H167    0.950   .     S
C166   C169    1.414   .     S
O168   Gd870   2.287   1_565 S
O168   C179    1.250   .     S
C169   C171    1.383   .     S
C169   C180    1.487   .     S
O170   C180    1.270   .     S
O170   Gd883   2.432   1_556 S
C171   H172    0.951   1_556 S
C171   C174    1.379   .     S
H172   C171    0.951   1_554 S
O173   C180    1.268   1_554 S
O173   Gd883   2.457   .     S
C174   C176    1.375   .     S
O175   N165    1.202   1_554 S
C176   H177    0.951   .     S
C180   O173    1.268   1_556 S
C181   C184    1.385   .     S
C181   C194    1.402   .     S
C181   C197    1.519   .     S
O182   C197    1.257   .     S
O182   Gd887   2.406   .     S
N183   C192    1.479   .     S
N183   O193    1.202   .     S
N183   O196    1.228   .     S
C184   H185    0.950   .     S
C184   C187    1.414   .     S
O186   Gd870   2.287   .     S
O186   C197    1.250   .     S
C187   C189    1.383   .     S
C187   C198    1.487   .     S
O188   C198    1.270   .     S
O188   Gd881   2.432   .     S
C189   H190    0.951   .     S
C189   C192    1.379   .     S
O191   C198    1.268   .     S
O191   Gd881   2.457   .     S
C192   C194    1.375   .     S
C194   H195    0.951   .     S
C199   C202    1.385   .     S
C199   C212    1.402   .     S
C199   C215    1.519   .     S
O200   C215    1.257   .     S
O200   Gd888   2.406   .     S
N201   C210    1.479   .     S
N201   O211    1.202   1_554 S
N201   O214    1.228   1_455 S
C202   H203    0.950   .     S
C202   C205    1.414   .     S
O204   Gd869   2.287   .     S
O204   C215    1.250   .     S
C205   C207    1.383   .     S
C205   C216    1.487   .     S
O206   C216    1.270   .     S
O206   Gd882   2.432   .     S
C207   H208    0.951   1_554 S
C207   C210    1.379   .     S
H208   C207    0.951   1_556 S
O209   C216    1.268   1_556 S
O209   Gd882   2.457   1_556 S
C210   C212    1.375   .     S
O211   N201    1.202   1_556 S
C212   H213    0.951   .     S
O214   N201    1.228   1_655 S
C216   O209    1.268   1_554 S
C217   C220    1.385   .     S
C217   C230    1.402   .     S
C217   C233    1.519   .     S
O218   C233    1.257   .     S
O218   Gd885   2.406   .     S
N219   C228    1.479   .     S
N219   O229    1.202   1_556 S
N219   O232    1.228   .     S
C220   H221    0.950   .     S
C220   C223    1.414   .     S
O222   Gd871   2.287   .     S
O222   C233    1.250   .     S
C223   C225    1.383   .     S
C223   C234    1.487   .     S
O224   C234    1.270   .     S
O224   Gd882   2.432   1_556 S
C225   H226    0.951   1_556 S
C225   C228    1.379   .     S
H226   C225    0.951   1_554 S
O227   C234    1.268   1_554 S
O227   Gd882   2.457   .     S
C228   C230    1.375   .     S
O229   N219    1.202   1_554 S
C230   H231    0.951   .     S
C234   O227    1.268   1_556 S
C235   C238    1.385   .     S
C235   C248    1.402   .     S
C235   C251    1.519   .     S
O236   C251    1.257   .     S
O236   Gd886   2.406   .     S
N237   C246    1.479   .     S
N237   O247    1.202   .     S
N237   O250    1.228   1_655 S
C238   H239    0.950   .     S
C238   C241    1.414   .     S
O240   Gd872   2.287   .     S
O240   C251    1.250   .     S
C241   C243    1.383   .     S
C241   C252    1.487   .     S
O242   C252    1.270   .     S
O242   Gd881   2.432   .     S
C243   H244    0.951   .     S
C243   C246    1.379   .     S
O245   C252    1.268   .     S
O245   Gd881   2.457   .     S
C246   C248    1.375   .     S
C248   H249    0.951   .     S
O250   N237    1.228   1_455 S
C253   C256    1.385   .     S
C253   C266    1.402   .     S
C253   C269    1.519   .     S
O254   C269    1.257   .     S
O254   Gd886   2.406   1_565 S
N255   C264    1.479   .     S
N255   O265    1.202   1_554 S
N255   O268    1.228   1_655 S
C256   H257    0.950   .     S
C256   C259    1.414   .     S
O258   Gd872   2.287   1_565 S
O258   C269    1.250   .     S
C259   C261    1.383   .     S
C259   C270    1.487   .     S
O260   C270    1.270   .     S
O260   Gd883   2.432   .     S
C261   H262    0.951   1_554 S
C261   C264    1.379   .     S
H262   C261    0.951   1_556 S
O263   C270    1.268   1_556 S
O263   Gd883   2.457   1_556 S
C264   C266    1.375   .     S
O265   N255    1.202   1_556 S
C266   H267    0.951   .     S
O268   N255    1.228   1_455 S
C270   O263    1.268   1_554 S
C271   C274    1.385   .     S
C271   C284    1.402   .     S
C271   C287    1.519   .     S
O272   C287    1.257   .     S
O272   Gd885   2.406   .     S
N273   C282    1.479   .     S
N273   O283    1.202   .     S
N273   O286    1.228   .     S
C274   H275    0.950   .     S
C274   C277    1.414   .     S
O276   Gd871   2.287   .     S
O276   C287    1.250   .     S
C277   C279    1.383   .     S
C277   C288    1.487   .     S
O278   C288    1.270   .     S
O278   Gd884   2.432   .     S
C279   H280    0.951   .     S
C279   C282    1.379   .     S
O281   C288    1.268   .     S
O281   Gd884   2.457   .     S
C282   C284    1.375   .     S
C284   H285    0.951   .     S
C289   C292    1.385   .     S
C289   C302    1.402   .     S
C289   C305    1.519   .     S
O290   C305    1.257   .     S
O290   Gd884   2.406   .     S
N291   C300    1.479   .     S
N291   O301    1.202   .     S
N291   O304    1.228   1_545 S
C292   H293    0.950   .     S
C292   C295    1.414   .     S
O294   Gd873   2.287   .     S
O294   C305    1.250   .     S
C295   C297    1.383   .     S
C295   C306    1.487   .     S
O296   C306    1.270   .     S
O296   Gd880   2.432   .     S
C297   H298    0.951   .     S
C297   C300    1.379   .     S
O299   C306    1.268   .     S
O299   Gd880   2.457   .     S
C300   C302    1.375   .     S
C302   H303    0.951   .     S
O304   N291    1.228   1_565 S
C307   C310    1.385   .     S
C307   C320    1.402   .     S
C307   C323    1.519   .     S
O308   C323    1.257   .     S
O308   Gd883   2.406   1_556 S
N309   C318    1.479   .     S
N309   O319    1.202   1_655 S
N309   O322    1.228   .     S
C310   H311    0.950   .     S
C310   C313    1.414   .     S
O312   Gd874   2.287   1_556 S
O312   C323    1.250   .     S
C313   C315    1.383   .     S
C313   C324    1.487   .     S
O314   C324    1.270   .     S
O314   Gd879   2.432   1_655 S
C315   H316    0.951   1_655 S
C315   C318    1.379   .     S
H316   C315    0.951   1_455 S
O317   C324    1.268   1_455 S
O317   Gd879   2.457   .     S
C318   C320    1.375   .     S
O319   N309    1.202   1_455 S
C320   H321    0.951   .     S
C324   O317    1.268   1_655 S
C325   C328    1.385   .     S
C325   C338    1.402   .     S
C325   C341    1.519   .     S
O326   C341    1.257   .     S
O326   Gd883   2.406   .     S
N327   C336    1.479   .     S
N327   O337    1.202   .     S
N327   O340    1.228   .     S
C328   H329    0.950   .     S
C328   C331    1.414   .     S
O330   Gd874   2.287   .     S
O330   C341    1.250   .     S
C331   C333    1.383   .     S
C331   C342    1.487   .     S
O332   C342    1.270   .     S
O332   Gd877   2.432   .     S
C333   H334    0.951   .     S
C333   C336    1.379   .     S
O335   C342    1.268   .     S
O335   Gd877   2.457   .     S
C336   C338    1.375   .     S
C338   H339    0.951   .     S
C343   C346    1.385   .     S
C343   C356    1.402   .     S
C343   C359    1.519   .     S
O344   C359    1.257   .     S
O344   Gd884   2.406   .     S
N345   C354    1.479   .     S
N345   O355    1.202   1_455 S
N345   O358    1.228   1_545 S
C346   H347    0.950   .     S
C346   C349    1.414   .     S
O348   Gd873   2.287   .     S
O348   C359    1.250   .     S
C349   C351    1.383   .     S
C349   C360    1.487   .     S
O350   C360    1.270   .     S
O350   Gd878   2.432   .     S
C351   H352    0.951   1_455 S
C351   C354    1.379   .     S
H352   C351    0.951   1_655 S
O353   C360    1.268   1_655 S
O353   Gd878   2.457   1_655 S
C354   C356    1.375   .     S
O355   N345    1.202   1_655 S
C356   H357    0.951   .     S
O358   N345    1.228   1_565 S
C360   O353    1.268   1_455 S
C361   C364    1.385   .     S
C361   C374    1.402   .     S
C361   C377    1.519   .     S
O362   C377    1.257   .     S
O362   Gd881   2.406   .     S
N363   C372    1.479   .     S
N363   O373    1.202   1_655 S
N363   O376    1.228   .     S
C364   H365    0.950   .     S
C364   C367    1.414   .     S
O366   Gd875   2.287   .     S
O366   C377    1.250   .     S
C367   C369    1.383   .     S
C367   C378    1.487   .     S
O368   C378    1.270   .     S
O368   Gd878   2.432   1_655 S
C369   H370    0.951   1_655 S
C369   C372    1.379   .     S
H370   C369    0.951   1_455 S
O371   C378    1.268   1_455 S
O371   Gd878   2.457   .     S
C372   C374    1.375   .     S
O373   N363    1.202   1_455 S
C374   H375    0.951   .     S
C378   O371    1.268   1_655 S
C379   C382    1.385   .     S
C379   C392    1.402   .     S
C379   C395    1.519   .     S
O380   C395    1.257   .     S
O380   Gd882   2.406   .     S
N381   C390    1.479   .     S
N381   O391    1.202   .     S
N381   O394    1.228   1_565 S
C382   H383    0.950   .     S
C382   C385    1.414   .     S
O384   Gd876   2.287   .     S
O384   C395    1.250   .     S
C385   C387    1.383   .     S
C385   C396    1.487   .     S
O386   C396    1.270   .     S
O386   Gd877   2.432   .     S
C387   H388    0.951   .     S
C387   C390    1.379   .     S
O389   C396    1.268   .     S
O389   Gd877   2.457   .     S
C390   C392    1.375   .     S
C392   H393    0.951   .     S
O394   N381    1.228   1_545 S
C397   C400    1.385   .     S
C397   C410    1.402   .     S
C397   C413    1.519   .     S
O398   C413    1.257   .     S
O398   Gd882   2.406   1_556 S
N399   C408    1.479   .     S
N399   O409    1.202   1_455 S
N399   O412    1.228   1_565 S
C400   H401    0.950   .     S
C400   C403    1.414   .     S
O402   Gd876   2.287   1_556 S
O402   C413    1.250   .     S
C403   C405    1.383   .     S
C403   C414    1.487   .     S
O404   C414    1.270   .     S
O404   Gd879   2.432   .     S
C405   H406    0.951   1_455 S
C405   C408    1.379   .     S
H406   C405    0.951   1_655 S
O407   C414    1.268   1_655 S
O407   Gd879   2.457   1_655 S
C408   C410    1.375   .     S
O409   N399    1.202   1_655 S
C410   H411    0.951   .     S
O412   N399    1.228   1_545 S
C414   O407    1.268   1_455 S
C415   C418    1.385   .     S
C415   C428    1.402   .     S
C415   C431    1.519   .     S
O416   C431    1.257   .     S
O416   Gd881   2.406   .     S
N417   C426    1.479   .     S
N417   O427    1.202   .     S
N417   O430    1.228   .     S
C418   H419    0.950   .     S
C418   C421    1.414   .     S
O420   Gd875   2.287   .     S
O420   C431    1.250   .     S
C421   C423    1.383   .     S
C421   C432    1.487   .     S
O422   C432    1.270   .     S
O422   Gd880   2.432   .     S
C423   H424    0.951   .     S
C423   C426    1.379   .     S
O425   C432    1.268   .     S
O425   Gd880   2.457   .     S
C426   C428    1.375   .     S
C428   H429    0.951   .     S
C433   C436    1.385   .     S
C433   C446    1.402   .     S
C433   C449    1.519   .     S
O434   C449    1.257   .     S
O434   Gd867   2.406   .     S
N435   C444    1.479   .     S
N435   O445    1.202   .     S
N435   O448    1.228   .     S
C436   H437    0.950   .     S
C436   C439    1.414   .     S
O438   Gd877   2.287   .     S
O438   C449    1.250   .     S
C439   C441    1.383   .     S
C439   C450    1.487   .     S
O440   C450    1.270   .     S
O440   Gd875   2.432   .     S
C441   H442    0.951   .     S
C441   C444    1.379   .     S
O443   C450    1.268   .     S
O443   Gd875   2.457   .     S
C444   C446    1.375   .     S
C446   H447    0.951   .     S
C451   C454    1.385   .     S
C451   C464    1.402   .     S
C451   C467    1.519   .     S
O452   C467    1.257   .     S
O452   Gd868   2.406   .     S
N453   C462    1.479   .     S
N453   O463    1.202   .     S
N453   O466    1.228   .     S
C454   H455    0.950   .     S
C454   C457    1.414   .     S
O456   Gd878   2.287   .     S
O456   C467    1.250   .     S
C457   C459    1.383   .     S
C457   C468    1.487   .     S
O458   C468    1.270   .     S
O458   Gd876   2.432   1_546 S
C459   H460    0.951   .     S
C459   C462    1.379   .     S
O461   C468    1.268   .     S
O461   Gd876   2.457   1_546 S
C462   C464    1.375   .     S
C464   H465    0.951   .     S
C469   C472    1.385   .     S
C469   C482    1.402   .     S
C469   C485    1.519   .     S
O470   C485    1.257   .     S
O470   Gd868   2.406   1_655 S
N471   C480    1.479   .     S
N471   O481    1.202   .     S
N471   O484    1.228   .     S
C472   H473    0.950   .     S
C472   C475    1.414   .     S
O474   Gd878   2.287   1_655 S
O474   C485    1.250   .     S
C475   C477    1.383   .     S
C475   C486    1.487   .     S
O476   C486    1.270   .     S
O476   Gd874   2.432   1_556 S
C477   H478    0.951   .     S
C477   C480    1.379   .     S
O479   C486    1.268   .     S
O479   Gd874   2.457   1_556 S
C480   C482    1.375   .     S
C482   H483    0.951   .     S
C487   C490    1.385   .     S
C487   C500    1.402   .     S
C487   C503    1.519   .     S
O488   C503    1.257   .     S
O488   Gd867   2.406   .     S
N489   C498    1.479   .     S
N489   O499    1.202   .     S
N489   O502    1.228   .     S
C490   H491    0.950   .     S
C490   C493    1.414   .     S
O492   Gd877   2.287   .     S
O492   C503    1.250   .     S
C493   C495    1.383   .     S
C493   C504    1.487   .     S
O494   C504    1.270   .     S
O494   Gd873   2.432   1_565 S
C495   H496    0.951   .     S
C495   C498    1.379   .     S
O497   C504    1.268   .     S
O497   Gd873   2.457   1_565 S
C498   C500    1.375   .     S
C500   H501    0.951   .     S
C505   C508    1.385   .     S
C505   C518    1.402   .     S
C505   C521    1.519   .     S
O506   C521    1.257   .     S
O506   Gd866   2.406   .     S
N507   C516    1.479   .     S
N507   O517    1.202   .     S
N507   O520    1.228   .     S
C508   H509    0.950   .     S
C508   C511    1.414   .     S
O510   Gd879   2.287   .     S
O510   C521    1.250   .     S
C511   C513    1.383   .     S
C511   C522    1.487   .     S
O512   C522    1.270   .     S
O512   Gd873   2.432   1_565 S
C513   H514    0.951   .     S
C513   C516    1.379   .     S
O515   C522    1.268   .     S
O515   Gd873   2.457   1_565 S
C516   C518    1.375   .     S
C518   H519    0.951   .     S
C523   C526    1.385   .     S
C523   C536    1.402   .     S
C523   C539    1.519   .     S
O524   C539    1.257   .     S
O524   Gd865   2.406   .     S
N525   C534    1.479   .     S
N525   O535    1.202   .     S
N525   O538    1.228   .     S
C526   H527    0.950   .     S
C526   C529    1.414   .     S
O528   Gd880   2.287   .     S
O528   C539    1.250   .     S
C529   C531    1.383   .     S
C529   C540    1.487   .     S
O530   C540    1.270   .     S
O530   Gd874   2.432   .     S
C531   H532    0.951   .     S
C531   C534    1.379   .     S
O533   C540    1.268   .     S
O533   Gd874   2.457   .     S
C534   C536    1.375   .     S
C536   H537    0.951   .     S
C541   C544    1.385   .     S
C541   C554    1.402   .     S
C541   C557    1.519   .     S
O542   C557    1.257   .     S
O542   Gd865   2.406   .     S
N543   C552    1.479   .     S
N543   O553    1.202   .     S
N543   O556    1.228   .     S
C544   H545    0.950   .     S
C544   C547    1.414   .     S
O546   Gd880   2.287   .     S
O546   C557    1.250   .     S
C547   C549    1.383   .     S
C547   C558    1.487   .     S
O548   C558    1.270   .     S
O548   Gd876   2.432   1_545 S
C549   H550    0.951   .     S
C549   C552    1.379   .     S
O551   C558    1.268   .     S
O551   Gd876   2.457   1_545 S
C552   C554    1.375   .     S
C554   H555    0.951   .     S
C559   C562    1.385   .     S
C559   C572    1.402   .     S
C559   C575    1.519   .     S
O560   C575    1.257   .     S
O560   Gd866   2.406   1_655 S
N561   C570    1.479   .     S
N561   O571    1.202   .     S
N561   O574    1.228   .     S
C562   H563    0.950   .     S
C562   C565    1.414   .     S
O564   Gd879   2.287   1_655 S
O564   C575    1.250   .     S
C565   C567    1.383   .     S
C565   C576    1.487   .     S
O566   C576    1.270   .     S
O566   Gd875   2.432   .     S
C567   H568    0.951   .     S
C567   C570    1.379   .     S
O569   C576    1.268   .     S
O569   Gd875   2.457   .     S
C570   C572    1.375   .     S
C572   H573    0.951   .     S
C577   C580    1.385   .     S
C577   C590    1.402   .     S
C577   C593    1.519   .     S
O578   C593    1.257   .     S
O578   Gd875   2.406   .     S
N579   C588    1.479   .     S
N579   O589    1.202   .     S
N579   O592    1.228   .     S
C580   H581    0.950   .     S
C580   C583    1.414   .     S
O582   Gd881   2.287   .     S
O582   C593    1.250   .     S
C583   C585    1.383   .     S
C583   C594    1.487   .     S
O584   C594    1.270   .     S
O584   Gd871   2.432   .     S
C585   H586    0.951   .     S
C585   C588    1.379   .     S
O587   C594    1.268   .     S
O587   Gd871   2.457   .     S
C588   C590    1.375   .     S
C590   H591    0.951   .     S
C595   C598    1.385   .     S
C595   C608    1.402   .     S
C595   C611    1.519   .     S
O596   C611    1.257   .     S
O596   Gd876   2.406   .     S
N597   C606    1.479   .     S
N597   O607    1.202   .     S
N597   O610    1.228   .     S
C598   H599    0.950   .     S
C598   C601    1.414   .     S
O600   Gd882   2.287   .     S
O600   C611    1.250   .     S
C601   C603    1.383   .     S
C601   C612    1.487   .     S
O602   C612    1.270   .     S
O602   Gd872   2.432   1_465 S
C603   H604    0.951   .     S
C603   C606    1.379   .     S
O605   C612    1.268   .     S
O605   Gd872   2.457   1_465 S
C606   C608    1.375   .     S
C608   H609    0.951   .     S
C613   C616    1.385   .     S
C613   C626    1.402   .     S
C613   C629    1.519   .     S
O614   C629    1.257   .     S
O614   Gd876   2.406   1_556 S
N615   C624    1.479   .     S
N615   O625    1.202   .     S
N615   O628    1.228   .     S
C616   H617    0.950   .     S
C616   C619    1.414   .     S
O618   Gd882   2.287   1_556 S
O618   C629    1.250   .     S
C619   C621    1.383   .     S
C619   C630    1.487   .     S
O620   C630    1.270   .     S
O620   Gd870   2.432   1_565 S
C621   H622    0.951   .     S
C621   C624    1.379   .     S
O623   C630    1.268   .     S
O623   Gd870   2.457   1_565 S
C624   C626    1.375   .     S
C626   H627    0.951   .     S
C631   C634    1.385   .     S
C631   C644    1.402   .     S
C631   C647    1.519   .     S
O632   C647    1.257   .     S
O632   Gd875   2.406   .     S
N633   C642    1.479   .     S
N633   O643    1.202   .     S
N633   O646    1.228   .     S
C634   H635    0.950   .     S
C634   C637    1.414   .     S
O636   Gd881   2.287   .     S
O636   C647    1.250   .     S
C637   C639    1.383   .     S
C637   C648    1.487   .     S
O638   C648    1.270   .     S
O638   Gd869   2.432   1_655 S
C639   H640    0.951   .     S
C639   C642    1.379   .     S
O641   C648    1.268   .     S
O641   Gd869   2.457   1_655 S
C642   C644    1.375   .     S
C644   H645    0.951   .     S
C649   C652    1.385   .     S
C649   C662    1.402   .     S
C649   C665    1.519   .     S
O650   C665    1.257   .     S
O650   Gd874   2.406   .     S
N651   C660    1.479   .     S
N651   O661    1.202   .     S
N651   O664    1.228   .     S
C652   H653    0.950   .     S
C652   C655    1.414   .     S
O654   Gd883   2.287   .     S
O654   C665    1.250   .     S
C655   C657    1.383   .     S
C655   C666    1.487   .     S
O656   C666    1.270   .     S
O656   Gd869   2.432   1_655 S
C657   H658    0.951   .     S
C657   C660    1.379   .     S
O659   C666    1.268   .     S
O659   Gd869   2.457   1_655 S
C660   C662    1.375   .     S
C662   H663    0.951   .     S
C667   C670    1.385   .     S
C667   C680    1.402   .     S
C667   C683    1.519   .     S
O668   C683    1.257   .     S
O668   Gd873   2.406   .     S
N669   C678    1.479   .     S
N669   O679    1.202   .     S
N669   O682    1.228   .     S
C670   H671    0.950   .     S
C670   C673    1.414   .     S
O672   Gd884   2.287   .     S
O672   C683    1.250   .     S
C673   C675    1.383   .     S
C673   C684    1.487   .     S
O674   C684    1.270   .     S
O674   Gd870   2.432   .     S
C675   H676    0.951   .     S
C675   C678    1.379   .     S
O677   C684    1.268   .     S
O677   Gd870   2.457   .     S
C678   C680    1.375   .     S
C680   H681    0.951   .     S
C685   C688    1.385   .     S
C685   C698    1.402   .     S
C685   C701    1.519   .     S
O686   C701    1.257   .     S
O686   Gd873   2.406   .     S
N687   C696    1.479   .     S
N687   O697    1.202   .     S
N687   O700    1.228   .     S
C688   H689    0.950   .     S
C688   C691    1.414   .     S
O690   Gd884   2.287   .     S
O690   C701    1.250   .     S
C691   C693    1.383   .     S
C691   C702    1.487   .     S
O692   C702    1.270   .     S
O692   Gd872   2.432   1_455 S
C693   H694    0.951   .     S
C693   C696    1.379   .     S
O695   C702    1.268   .     S
O695   Gd872   2.457   1_455 S
C696   C698    1.375   .     S
C698   H699    0.951   .     S
C703   C706    1.385   .     S
C703   C716    1.402   .     S
C703   C719    1.519   .     S
O704   C719    1.257   .     S
O704   Gd874   2.406   1_556 S
N705   C714    1.479   .     S
N705   O715    1.202   .     S
N705   O718    1.228   .     S
C706   H707    0.950   .     S
C706   C709    1.414   .     S
O708   Gd883   2.287   1_556 S
O708   C719    1.250   .     S
C709   C711    1.383   .     S
C709   C720    1.487   .     S
O710   C720    1.270   .     S
O710   Gd871   2.432   .     S
C711   H712    0.951   .     S
C711   C714    1.379   .     S
O713   C720    1.268   .     S
O713   Gd871   2.457   .     S
C714   C716    1.375   .     S
C716   H717    0.951   .     S
C721   C724    1.385   .     S
C721   C734    1.402   .     S
C721   C737    1.519   .     S
O722   C737    1.257   .     S
O722   Gd871   2.406   .     S
N723   C732    1.479   .     S
N723   O733    1.202   .     S
N723   O736    1.228   .     S
C724   H725    0.950   .     S
C724   C727    1.414   .     S
O726   Gd885   2.287   .     S
O726   C737    1.250   .     S
C727   C729    1.383   .     S
C727   C738    1.487   .     S
O728   C738    1.270   .     S
O728   Gd867   2.432   .     S
C729   H730    0.951   .     S
C729   C732    1.379   .     S
O731   C738    1.268   .     S
O731   Gd867   2.457   .     S
C732   C734    1.375   .     S
C734   H735    0.951   .     S
C739   C742    1.385   .     S
C739   C752    1.402   .     S
C739   C755    1.519   .     S
O740   C755    1.257   .     S
O740   Gd872   2.406   .     S
N741   C750    1.479   .     S
N741   O751    1.202   .     S
N741   O754    1.228   .     S
C742   H743    0.950   .     S
C742   C745    1.414   .     S
O744   Gd886   2.287   .     S
O744   C755    1.250   .     S
C745   C747    1.383   .     S
C745   C756    1.487   .     S
O746   C756    1.270   .     S
O746   Gd868   2.432   1_654 S
C747   H748    0.951   .     S
C747   C750    1.379   .     S
O749   C756    1.268   .     S
O749   Gd868   2.457   1_654 S
C750   C752    1.375   .     S
C752   H753    0.951   .     S
C757   C760    1.385   .     S
C757   C770    1.402   .     S
C757   C773    1.519   .     S
O758   C773    1.257   .     S
O758   Gd872   2.406   1_565 S
N759   C768    1.479   .     S
N759   O769    1.202   .     S
N759   O772    1.228   .     S
C760   H761    0.950   .     S
C760   C763    1.414   .     S
O762   Gd886   2.287   1_565 S
O762   C773    1.250   .     S
C763   C765    1.383   .     S
C763   C774    1.487   .     S
O764   C774    1.270   .     S
O764   Gd866   2.432   1_655 S
C765   H766    0.951   .     S
C765   C768    1.379   .     S
O767   C774    1.268   .     S
O767   Gd866   2.457   1_655 S
C768   C770    1.375   .     S
C770   H771    0.951   .     S
C775   C778    1.385   .     S
C775   C788    1.402   .     S
C775   C791    1.519   .     S
O776   C791    1.257   .     S
O776   Gd871   2.406   .     S
N777   C786    1.479   .     S
N777   O787    1.202   .     S
N777   O790    1.228   .     S
C778   H779    0.950   .     S
C778   C781    1.414   .     S
O780   Gd885   2.287   .     S
O780   C791    1.250   .     S
C781   C783    1.383   .     S
C781   C792    1.487   .     S
O782   C792    1.270   .     S
O782   Gd865   2.432   1_556 S
C783   H784    0.951   .     S
C783   C786    1.379   .     S
O785   C792    1.268   .     S
O785   Gd865   2.457   1_556 S
C786   C788    1.375   .     S
C788   H789    0.951   .     S
C793   C796    1.385   .     S
C793   C806    1.402   .     S
C793   C809    1.519   .     S
O794   C809    1.257   .     S
O794   Gd870   2.406   .     S
N795   C804    1.479   .     S
N795   O805    1.202   .     S
N795   O808    1.228   .     S
C796   H797    0.950   .     S
C796   C799    1.414   .     S
O798   Gd887   2.287   .     S
O798   C809    1.250   .     S
C799   C801    1.383   .     S
C799   C810    1.487   .     S
O800   C810    1.270   .     S
O800   Gd865   2.432   1_556 S
C801   H802    0.951   .     S
C801   C804    1.379   .     S
O803   C810    1.268   .     S
O803   Gd865   2.457   1_556 S
C804   C806    1.375   .     S
C806   H807    0.951   .     S
C811   C814    1.385   .     S
C811   C824    1.402   .     S
C811   C827    1.519   .     S
O812   C827    1.257   .     S
O812   Gd869   2.406   .     S
N813   C822    1.479   .     S
N813   O823    1.202   .     S
N813   O826    1.228   .     S
C814   H815    0.950   .     S
C814   C817    1.414   .     S
O816   Gd888   2.287   .     S
O816   C827    1.250   .     S
C817   C819    1.383   .     S
C817   C828    1.487   .     S
O818   C828    1.270   .     S
O818   Gd866   2.432   .     S
C819   H820    0.951   .     S
C819   C822    1.379   .     S
O821   C828    1.268   .     S
O821   Gd866   2.457   .     S
C822   C824    1.375   .     S
C824   H825    0.951   .     S
C829   C832    1.385   .     S
C829   C842    1.402   .     S
C829   C845    1.519   .     S
O830   C845    1.257   .     S
O830   Gd869   2.406   .     S
N831   C840    1.479   .     S
N831   O841    1.202   .     S
N831   O844    1.228   .     S
C832   H833    0.950   .     S
C832   C835    1.414   .     S
O834   Gd888   2.287   .     S
O834   C845    1.250   .     S
C835   C837    1.383   .     S
C835   C846    1.487   .     S
O836   C846    1.270   .     S
O836   Gd868   2.432   1_554 S
C837   H838    0.951   .     S
C837   C840    1.379   .     S
O839   C846    1.268   .     S
O839   Gd868   2.457   1_554 S
C840   C842    1.375   .     S
C842   H843    0.951   .     S
C847   C850    1.385   .     S
C847   C860    1.402   .     S
C847   C863    1.519   .     S
O848   C863    1.257   .     S
O848   Gd870   2.406   1_565 S
N849   C858    1.479   .     S
N849   O859    1.202   .     S
N849   O862    1.228   .     S
C850   H851    0.950   .     S
C850   C853    1.414   .     S
O852   Gd887   2.287   1_565 S
O852   C863    1.250   .     S
C853   C855    1.383   .     S
C853   C864    1.487   .     S
O854   C864    1.270   .     S
O854   Gd867   2.432   .     S
C855   H856    0.951   .     S
C855   C858    1.379   .     S
O857   C864    1.268   .     S
O857   Gd867   2.457   .     S
C858   C860    1.375   .     S
C860   H861    0.951   .     S
Gd865  O800    2.432   1_554 S
Gd865  O782    2.432   1_554 S
Gd865  O803    2.457   1_554 S
Gd865  O785    2.457   1_554 S
Gd866  O24     2.287   1_455 S
Gd866  O560    2.406   1_455 S
Gd866  O764    2.432   1_455 S
Gd866  O767    2.457   1_455 S
Gd868  O114    2.287   1_455 S
Gd868  O470    2.406   1_455 S
Gd868  O836    2.432   1_556 S
Gd868  O746    2.432   1_456 S
Gd868  O839    2.457   1_556 S
Gd868  O749    2.457   1_456 S
Gd869  O656    2.432   1_455 S
Gd869  O638    2.432   1_455 S
Gd869  O659    2.457   1_455 S
Gd869  O641    2.457   1_455 S
Gd870  O168    2.287   1_545 S
Gd870  O848    2.406   1_545 S
Gd870  O620    2.432   1_545 S
Gd870  O623    2.457   1_545 S
Gd872  O258    2.287   1_545 S
Gd872  O758    2.406   1_545 S
Gd872  O692    2.432   1_655 S
Gd872  O602    2.432   1_645 S
Gd872  O695    2.457   1_655 S
Gd872  O605    2.457   1_645 S
Gd873  O512    2.432   1_545 S
Gd873  O494    2.432   1_545 S
Gd873  O515    2.457   1_545 S
Gd873  O497    2.457   1_545 S
Gd874  O312    2.287   1_554 S
Gd874  O704    2.406   1_554 S
Gd874  O476    2.432   1_554 S
Gd874  O479    2.457   1_554 S
Gd876  O402    2.287   1_554 S
Gd876  O614    2.406   1_554 S
Gd876  O548    2.432   1_565 S
Gd876  O458    2.432   1_564 S
Gd876  O551    2.457   1_565 S
Gd876  O461    2.457   1_564 S
Gd878  O474    2.287   1_455 S
Gd878  O110    2.406   1_455 S
Gd878  O368    2.432   1_455 S
Gd878  O353    2.457   1_455 S
Gd879  O564    2.287   1_455 S
Gd879  O20     2.406   1_455 S
Gd879  O314    2.432   1_455 S
Gd879  O407    2.457   1_455 S
Gd882  O618    2.287   1_554 S
Gd882  O398    2.406   1_554 S
Gd882  O224    2.432   1_554 S
Gd882  O209    2.457   1_554 S
Gd883  O708    2.287   1_554 S
Gd883  O308    2.406   1_554 S
Gd883  O170    2.432   1_554 S
Gd883  O263    2.457   1_554 S
Gd886  O762    2.287   1_545 S
Gd886  O254    2.406   1_545 S
Gd886  O80     2.432   1_545 S
Gd886  O65     2.457   1_545 S
Gd887  O852    2.287   1_545 S
Gd887  O164    2.406   1_545 S
Gd887  O26     2.432   1_545 S
Gd887  O119    2.457   1_545 S
