data_GELQOG01_FSR
_audit_creation_date              2024-06-11
_audit_creation_method            'Materials Studio'
_symmetry_space_group_name_H-M    'P1'
_symmetry_Int_Tables_number       1
_symmetry_cell_setting            triclinic
loop_
_symmetry_equiv_pos_as_xyz
  x,y,z
_cell_length_a                    28.4490
_cell_length_b                    28.4490
_cell_length_c                    10.9600
_cell_angle_alpha                 90.0000
_cell_angle_beta                  90.0000
_cell_angle_gamma                 120.0000
loop_
_atom_site_label
_atom_site_type_symbol
_atom_site_fract_x
_atom_site_fract_y
_atom_site_fract_z
_atom_site_U_iso_or_equiv
_atom_site_adp_type
_atom_site_occupancy
O1     O     0.92972   0.34381   0.27200   0.03889  Uani   1.00
O2     O     0.99620   0.38548   0.40850   0.03740  Uani   1.00
N3     N     0.90089   0.39621   0.06280   0.03872  Uani   1.00
C4     C     0.89096   0.48949   0.04780   0.03853  Uani   1.00
C5     C     0.92354   0.43190   0.97230   0.04667  Uani   1.00
H6     H     0.94350   0.42510   0.91210   0.05600  Uiso   1.00
N7     N     0.88577   0.53465   0.03420   0.05169  Uani   1.00
C8     C     0.91968   0.47789   0.96110   0.05120  Uani   1.00
H9     H     0.93660   0.50180   0.89430   0.06200  Uiso   1.00
C10    C     0.86721   0.45228   0.14200   0.05167  Uani   1.00
H11    H     0.84710   0.45800   0.20360   0.06200  Uiso   1.00
C12    C     0.87300   0.40735   0.14550   0.05456  Uani   1.00
H13    H     0.85610   0.38240   0.21060   0.06500  Uiso   1.00
C14    C     0.97877   0.37164   0.30240   0.03217  Uani   1.00
H15    H     0.91650   0.56400   0.98950   0.03900  Uiso   1.00
O16    O     0.59639   0.67714   0.60533   0.03889  Uani   1.00
O17    O     0.66287   0.71881   0.74183   0.03740  Uani   1.00
N18    N     0.56756   0.72954   0.39613   0.03872  Uani   1.00
C19    C     0.55763   0.82282   0.38113   0.03853  Uani   1.00
C20    C     0.59021   0.76523   0.30563   0.04667  Uani   1.00
H21    H     0.61017   0.75843   0.24543   0.05600  Uiso   1.00
N22    N     0.55244   0.86798   0.36753   0.05169  Uani   1.00
C23    C     0.58635   0.81122   0.29443   0.05120  Uani   1.00
H24    H     0.60327   0.83513   0.22763   0.06200  Uiso   1.00
C25    C     0.53388   0.78561   0.47533   0.05167  Uani   1.00
H26    H     0.51377   0.79133   0.53693   0.06200  Uiso   1.00
C27    C     0.53967   0.74068   0.47883   0.05456  Uani   1.00
H28    H     0.52277   0.71573   0.54393   0.06500  Uiso   1.00
C29    C     0.64544   0.70497   0.63573   0.03217  Uani   1.00
H30    H     0.58317   0.89733   0.32283   0.03900  Uiso   1.00
O31    O     0.26305   0.01048   0.93867   0.03889  Uani   1.00
O32    O     0.32953   0.05215   0.07517   0.03740  Uani   1.00
N33    N     0.23422   0.06288   0.72947   0.03872  Uani   1.00
C34    C     0.22429   0.15616   0.71447   0.03853  Uani   1.00
C35    C     0.25687   0.09857   0.63897   0.04667  Uani   1.00
H36    H     0.27683   0.09177   0.57877   0.05600  Uiso   1.00
N37    N     0.21910   0.20132   0.70087   0.05169  Uani   1.00
C38    C     0.25301   0.14456   0.62777   0.05120  Uani   1.00
H39    H     0.26993   0.16847   0.56097   0.06200  Uiso   1.00
C40    C     0.20054   0.11895   0.80867   0.05167  Uani   1.00
H41    H     0.18043   0.12467   0.87027   0.06200  Uiso   1.00
C42    C     0.20633   0.07402   0.81217   0.05456  Uani   1.00
H43    H     0.18943   0.04907   0.87727   0.06500  Uiso   1.00
C44    C     0.31210   0.03831   0.96907   0.03217  Uani   1.00
H45    H     0.24983   0.23067   0.65617   0.03900  Uiso   1.00
O46    O     0.65619   0.58591   0.27200   0.03889  Uani   1.00
O47    O     0.61452   0.61072   0.40850   0.03740  Uani   1.00
N48    N     0.60379   0.50468   0.06280   0.03872  Uani   1.00
C49    C     0.51051   0.40147   0.04780   0.03853  Uani   1.00
C50    C     0.56810   0.49164   0.97230   0.04667  Uani   1.00
H51    H     0.57490   0.51840   0.91210   0.05600  Uiso   1.00
N52    N     0.46535   0.35112   0.03420   0.05169  Uani   1.00
C53    C     0.52211   0.44179   0.96110   0.05120  Uani   1.00
H54    H     0.49820   0.43480   0.89430   0.06200  Uiso   1.00
C55    C     0.54772   0.41493   0.14200   0.05167  Uani   1.00
H56    H     0.54200   0.38910   0.20360   0.06200  Uiso   1.00
C57    C     0.59265   0.46565   0.14550   0.05456  Uani   1.00
H58    H     0.61760   0.47370   0.21060   0.06500  Uiso   1.00
C59    C     0.62836   0.60713   0.30240   0.03217  Uani   1.00
H60    H     0.43600   0.35250   0.98950   0.03900  Uiso   1.00
O61    O     0.32286   0.91924   0.60533   0.03889  Uani   1.00
O62    O     0.28119   0.94405   0.74183   0.03740  Uani   1.00
N63    N     0.27046   0.83801   0.39613   0.03872  Uani   1.00
C64    C     0.17718   0.73480   0.38113   0.03853  Uani   1.00
C65    C     0.23477   0.82497   0.30563   0.04667  Uani   1.00
H66    H     0.24157   0.85173   0.24543   0.05600  Uiso   1.00
N67    N     0.13202   0.68445   0.36753   0.05169  Uani   1.00
C68    C     0.18878   0.77512   0.29443   0.05120  Uani   1.00
H69    H     0.16487   0.76813   0.22763   0.06200  Uiso   1.00
C70    C     0.21439   0.74826   0.47533   0.05167  Uani   1.00
H71    H     0.20867   0.72243   0.53693   0.06200  Uiso   1.00
C72    C     0.25932   0.79898   0.47883   0.05456  Uani   1.00
H73    H     0.28427   0.80703   0.54393   0.06500  Uiso   1.00
C74    C     0.29503   0.94046   0.63573   0.03217  Uani   1.00
H75    H     0.10267   0.68583   0.32283   0.03900  Uiso   1.00
O76    O     0.98952   0.25258   0.93867   0.03889  Uani   1.00
O77    O     0.94785   0.27739   0.07517   0.03740  Uani   1.00
N78    N     0.93712   0.17135   0.72947   0.03872  Uani   1.00
C79    C     0.84384   0.06814   0.71447   0.03853  Uani   1.00
C80    C     0.90143   0.15831   0.63897   0.04667  Uani   1.00
H81    H     0.90823   0.18507   0.57877   0.05600  Uiso   1.00
N82    N     0.79868   0.01779   0.70087   0.05169  Uani   1.00
C83    C     0.85544   0.10846   0.62777   0.05120  Uani   1.00
H84    H     0.83153   0.10147   0.56097   0.06200  Uiso   1.00
C85    C     0.88105   0.08160   0.80867   0.05167  Uani   1.00
H86    H     0.87533   0.05577   0.87027   0.06200  Uiso   1.00
C87    C     0.92598   0.13232   0.81217   0.05456  Uani   1.00
H88    H     0.95093   0.14037   0.87727   0.06500  Uiso   1.00
C89    C     0.96169   0.27380   0.96907   0.03217  Uani   1.00
H90    H     0.76933   0.01917   0.65617   0.03900  Uiso   1.00
O91    O     0.41409   0.07028   0.27200   0.03889  Uani   1.00
O92    O     0.38928   0.00380   0.40850   0.03740  Uani   1.00
N93    N     0.49532   0.09911   0.06280   0.03872  Uani   1.00
C94    C     0.59853   0.10904   0.04780   0.03853  Uani   1.00
C95    C     0.50836   0.07646   0.97230   0.04667  Uani   1.00
H96    H     0.48160   0.05650   0.91210   0.05600  Uiso   1.00
N97    N     0.64888   0.11423   0.03420   0.05169  Uani   1.00
C98    C     0.55821   0.08032   0.96110   0.05120  Uani   1.00
H99    H     0.56520   0.06340   0.89430   0.06200  Uiso   1.00
C100   C     0.58507   0.13279   0.14200   0.05167  Uani   1.00
H101   H     0.61090   0.15290   0.20360   0.06200  Uiso   1.00
C102   C     0.53435   0.12700   0.14550   0.05456  Uani   1.00
H103   H     0.52630   0.14390   0.21060   0.06500  Uiso   1.00
C104   C     0.39287   0.02123   0.30240   0.03217  Uani   1.00
H105   H     0.64750   0.08350   0.98950   0.03900  Uiso   1.00
O106   O     0.08076   0.40361   0.60533   0.03889  Uani   1.00
O107   O     0.05595   0.33713   0.74183   0.03740  Uani   1.00
N108   N     0.16199   0.43244   0.39613   0.03872  Uani   1.00
C109   C     0.26520   0.44237   0.38113   0.03853  Uani   1.00
C110   C     0.17503   0.40979   0.30563   0.04667  Uani   1.00
H111   H     0.14827   0.38983   0.24543   0.05600  Uiso   1.00
N112   N     0.31555   0.44756   0.36753   0.05169  Uani   1.00
C113   C     0.22488   0.41365   0.29443   0.05120  Uani   1.00
H114   H     0.23187   0.39673   0.22763   0.06200  Uiso   1.00
C115   C     0.25174   0.46612   0.47533   0.05167  Uani   1.00
H116   H     0.27757   0.48623   0.53693   0.06200  Uiso   1.00
C117   C     0.20102   0.46033   0.47883   0.05456  Uani   1.00
H118   H     0.19297   0.47723   0.54393   0.06500  Uiso   1.00
C119   C     0.05954   0.35456   0.63573   0.03217  Uani   1.00
H120   H     0.31417   0.41683   0.32283   0.03900  Uiso   1.00
O121   O     0.74742   0.73695   0.93867   0.03889  Uani   1.00
O122   O     0.72261   0.67047   0.07517   0.03740  Uani   1.00
N123   N     0.82865   0.76578   0.72947   0.03872  Uani   1.00
C124   C     0.93186   0.77571   0.71447   0.03853  Uani   1.00
C125   C     0.84169   0.74313   0.63897   0.04667  Uani   1.00
H126   H     0.81493   0.72317   0.57877   0.05600  Uiso   1.00
N127   N     0.98221   0.78090   0.70087   0.05169  Uani   1.00
C128   C     0.89154   0.74699   0.62777   0.05120  Uani   1.00
H129   H     0.89853   0.73007   0.56097   0.06200  Uiso   1.00
C130   C     0.91840   0.79946   0.80867   0.05167  Uani   1.00
H131   H     0.94423   0.81957   0.87027   0.06200  Uiso   1.00
C132   C     0.86768   0.79367   0.81217   0.05456  Uani   1.00
H133   H     0.85963   0.81057   0.87727   0.06500  Uiso   1.00
C134   C     0.72620   0.68790   0.96907   0.03217  Uani   1.00
H135   H     0.98083   0.75017   0.65617   0.03900  Uiso   1.00
O136   O     0.34381   0.92972   0.22800   0.03889  Uani   1.00
O137   O     0.38548   0.99620   0.09150   0.03740  Uani   1.00
N138   N     0.39621   0.90089   0.43720   0.03872  Uani   1.00
C139   C     0.48949   0.89096   0.45220   0.03853  Uani   1.00
C140   C     0.43190   0.92354   0.52770   0.04667  Uani   1.00
H141   H     0.42510   0.94350   0.58790   0.05600  Uiso   1.00
N142   N     0.53465   0.88577   0.46580   0.05169  Uani   1.00
C143   C     0.47789   0.91968   0.53890   0.05120  Uani   1.00
H144   H     0.50180   0.93660   0.60570   0.06200  Uiso   1.00
C145   C     0.45228   0.86721   0.35800   0.05167  Uani   1.00
H146   H     0.45800   0.84710   0.29640   0.06200  Uiso   1.00
C147   C     0.40735   0.87300   0.35450   0.05456  Uani   1.00
H148   H     0.38240   0.85610   0.28940   0.06500  Uiso   1.00
C149   C     0.37164   0.97877   0.19760   0.03217  Uani   1.00
H150   H     0.56400   0.91650   0.51050   0.03900  Uiso   1.00
O151   O     0.01048   0.26305   0.56133   0.03889  Uani   1.00
O152   O     0.05215   0.32953   0.42483   0.03740  Uani   1.00
N153   N     0.06288   0.23422   0.77053   0.03872  Uani   1.00
C154   C     0.15616   0.22429   0.78553   0.03853  Uani   1.00
C155   C     0.09857   0.25687   0.86103   0.04667  Uani   1.00
H156   H     0.09177   0.27683   0.92123   0.05600  Uiso   1.00
N157   N     0.20132   0.21910   0.79913   0.05169  Uani   1.00
C158   C     0.14456   0.25301   0.87223   0.05120  Uani   1.00
H159   H     0.16847   0.26993   0.93903   0.06200  Uiso   1.00
C160   C     0.11895   0.20054   0.69133   0.05167  Uani   1.00
H161   H     0.12467   0.18043   0.62973   0.06200  Uiso   1.00
C162   C     0.07402   0.20633   0.68783   0.05456  Uani   1.00
H163   H     0.04907   0.18943   0.62273   0.06500  Uiso   1.00
C164   C     0.03831   0.31210   0.53093   0.03217  Uani   1.00
H165   H     0.23067   0.24983   0.84383   0.03900  Uiso   1.00
O166   O     0.67714   0.59639   0.89467   0.03889  Uani   1.00
O167   O     0.71881   0.66287   0.75817   0.03740  Uani   1.00
N168   N     0.72954   0.56756   0.10387   0.03872  Uani   1.00
C169   C     0.82282   0.55763   0.11887   0.03853  Uani   1.00
C170   C     0.76523   0.59021   0.19437   0.04667  Uani   1.00
H171   H     0.75843   0.61017   0.25457   0.05600  Uiso   1.00
N172   N     0.86798   0.55244   0.13247   0.05169  Uani   1.00
C173   C     0.81122   0.58635   0.20557   0.05120  Uani   1.00
H174   H     0.83513   0.60327   0.27237   0.06200  Uiso   1.00
C175   C     0.78561   0.53388   0.02467   0.05167  Uani   1.00
H176   H     0.79133   0.51377   0.96307   0.06200  Uiso   1.00
C177   C     0.74068   0.53967   0.02117   0.05456  Uani   1.00
H178   H     0.71573   0.52277   0.95607   0.06500  Uiso   1.00
C179   C     0.70497   0.64544   0.86427   0.03217  Uani   1.00
H180   H     0.89733   0.58317   0.17717   0.03900  Uiso   1.00
O181   O     0.58591   0.65619   0.22800   0.03889  Uani   1.00
O182   O     0.61072   0.61452   0.09150   0.03740  Uani   1.00
N183   N     0.50468   0.60379   0.43720   0.03872  Uani   1.00
C184   C     0.40147   0.51051   0.45220   0.03853  Uani   1.00
C185   C     0.49164   0.56810   0.52770   0.04667  Uani   1.00
H186   H     0.51840   0.57490   0.58790   0.05600  Uiso   1.00
N187   N     0.35112   0.46535   0.46580   0.05169  Uani   1.00
C188   C     0.44179   0.52211   0.53890   0.05120  Uani   1.00
H189   H     0.43480   0.49820   0.60570   0.06200  Uiso   1.00
C190   C     0.41493   0.54772   0.35800   0.05167  Uani   1.00
H191   H     0.38910   0.54200   0.29640   0.06200  Uiso   1.00
C192   C     0.46565   0.59265   0.35450   0.05456  Uani   1.00
H193   H     0.47370   0.61760   0.28940   0.06500  Uiso   1.00
C194   C     0.60713   0.62836   0.19760   0.03217  Uani   1.00
H195   H     0.35250   0.43600   0.51050   0.03900  Uiso   1.00
O196   O     0.25258   0.98952   0.56133   0.03889  Uani   1.00
O197   O     0.27739   0.94785   0.42483   0.03740  Uani   1.00
N198   N     0.17135   0.93712   0.77053   0.03872  Uani   1.00
C199   C     0.06814   0.84384   0.78553   0.03853  Uani   1.00
C200   C     0.15831   0.90143   0.86103   0.04667  Uani   1.00
H201   H     0.18507   0.90823   0.92123   0.05600  Uiso   1.00
N202   N     0.01779   0.79868   0.79913   0.05169  Uani   1.00
C203   C     0.10846   0.85544   0.87223   0.05120  Uani   1.00
H204   H     0.10147   0.83153   0.93903   0.06200  Uiso   1.00
C205   C     0.08160   0.88105   0.69133   0.05167  Uani   1.00
H206   H     0.05577   0.87533   0.62973   0.06200  Uiso   1.00
C207   C     0.13232   0.92598   0.68783   0.05456  Uani   1.00
H208   H     0.14037   0.95093   0.62273   0.06500  Uiso   1.00
C209   C     0.27380   0.96169   0.53093   0.03217  Uani   1.00
H210   H     0.01917   0.76933   0.84383   0.03900  Uiso   1.00
O211   O     0.91924   0.32286   0.89467   0.03889  Uani   1.00
O212   O     0.94405   0.28119   0.75817   0.03740  Uani   1.00
N213   N     0.83801   0.27046   0.10387   0.03872  Uani   1.00
C214   C     0.73480   0.17718   0.11887   0.03853  Uani   1.00
C215   C     0.82497   0.23477   0.19437   0.04667  Uani   1.00
H216   H     0.85173   0.24157   0.25457   0.05600  Uiso   1.00
N217   N     0.68445   0.13202   0.13247   0.05169  Uani   1.00
C218   C     0.77512   0.18878   0.20557   0.05120  Uani   1.00
H219   H     0.76813   0.16487   0.27237   0.06200  Uiso   1.00
C220   C     0.74826   0.21439   0.02467   0.05167  Uani   1.00
H221   H     0.72243   0.20867   0.96307   0.06200  Uiso   1.00
C222   C     0.79898   0.25932   0.02117   0.05456  Uani   1.00
H223   H     0.80703   0.28427   0.95607   0.06500  Uiso   1.00
C224   C     0.94046   0.29503   0.86427   0.03217  Uani   1.00
H225   H     0.68583   0.10267   0.17717   0.03900  Uiso   1.00
O226   O     0.07028   0.41409   0.22800   0.03889  Uani   1.00
O227   O     0.00380   0.38928   0.09150   0.03740  Uani   1.00
N228   N     0.09911   0.49532   0.43720   0.03872  Uani   1.00
C229   C     0.10904   0.59853   0.45220   0.03853  Uani   1.00
C230   C     0.07646   0.50836   0.52770   0.04667  Uani   1.00
H231   H     0.05650   0.48160   0.58790   0.05600  Uiso   1.00
N232   N     0.11423   0.64888   0.46580   0.05169  Uani   1.00
C233   C     0.08032   0.55821   0.53890   0.05120  Uani   1.00
H234   H     0.06340   0.56520   0.60570   0.06200  Uiso   1.00
C235   C     0.13279   0.58507   0.35800   0.05167  Uani   1.00
H236   H     0.15290   0.61090   0.29640   0.06200  Uiso   1.00
C237   C     0.12700   0.53435   0.35450   0.05456  Uani   1.00
H238   H     0.14390   0.52630   0.28940   0.06500  Uiso   1.00
C239   C     0.02123   0.39287   0.19760   0.03217  Uani   1.00
H240   H     0.08350   0.64750   0.51050   0.03900  Uiso   1.00
O241   O     0.73695   0.74742   0.56133   0.03889  Uani   1.00
O242   O     0.67047   0.72261   0.42483   0.03740  Uani   1.00
N243   N     0.76578   0.82865   0.77053   0.03872  Uani   1.00
C244   C     0.77571   0.93186   0.78553   0.03853  Uani   1.00
C245   C     0.74313   0.84169   0.86103   0.04667  Uani   1.00
H246   H     0.72317   0.81493   0.92123   0.05600  Uiso   1.00
N247   N     0.78090   0.98221   0.79913   0.05169  Uani   1.00
C248   C     0.74699   0.89154   0.87223   0.05120  Uani   1.00
H249   H     0.73007   0.89853   0.93903   0.06200  Uiso   1.00
C250   C     0.79946   0.91840   0.69133   0.05167  Uani   1.00
H251   H     0.81957   0.94423   0.62973   0.06200  Uiso   1.00
C252   C     0.79367   0.86768   0.68783   0.05456  Uani   1.00
H253   H     0.81057   0.85963   0.62273   0.06500  Uiso   1.00
C254   C     0.68790   0.72620   0.53093   0.03217  Uani   1.00
H255   H     0.75017   0.98083   0.84383   0.03900  Uiso   1.00
O256   O     0.40361   0.08076   0.89467   0.03889  Uani   1.00
O257   O     0.33713   0.05595   0.75817   0.03740  Uani   1.00
N258   N     0.43244   0.16199   0.10387   0.03872  Uani   1.00
C259   C     0.44237   0.26520   0.11887   0.03853  Uani   1.00
C260   C     0.40979   0.17503   0.19437   0.04667  Uani   1.00
H261   H     0.38983   0.14827   0.25457   0.05600  Uiso   1.00
N262   N     0.44756   0.31555   0.13247   0.05169  Uani   1.00
C263   C     0.41365   0.22488   0.20557   0.05120  Uani   1.00
H264   H     0.39673   0.23187   0.27237   0.06200  Uiso   1.00
C265   C     0.46612   0.25174   0.02467   0.05167  Uani   1.00
H266   H     0.48623   0.27757   0.96307   0.06200  Uiso   1.00
C267   C     0.46033   0.20102   0.02117   0.05456  Uani   1.00
H268   H     0.47723   0.19297   0.95607   0.06500  Uiso   1.00
C269   C     0.35456   0.05954   0.86427   0.03217  Uani   1.00
H270   H     0.41683   0.31417   0.17717   0.03900  Uiso   1.00
O271   O     0.07028   0.65619   0.72800   0.03889  Uani   1.00
O272   O     0.00380   0.61452   0.59150   0.03740  Uani   1.00
N273   N     0.09911   0.60379   0.93720   0.03872  Uani   1.00
C274   C     0.10904   0.51051   0.95220   0.03853  Uani   1.00
C275   C     0.07646   0.56810   0.02770   0.04667  Uani   1.00
H276   H     0.05650   0.57490   0.08790   0.05600  Uiso   1.00
N277   N     0.11423   0.46535   0.96580   0.05169  Uani   1.00
C278   C     0.08032   0.52211   0.03890   0.05120  Uani   1.00
H279   H     0.06340   0.49820   0.10570   0.06200  Uiso   1.00
C280   C     0.13279   0.54772   0.85800   0.05167  Uani   1.00
H281   H     0.15290   0.54200   0.79640   0.06200  Uiso   1.00
C282   C     0.12700   0.59265   0.85450   0.05456  Uani   1.00
H283   H     0.14390   0.61760   0.78940   0.06500  Uiso   1.00
C284   C     0.02123   0.62836   0.69760   0.03217  Uani   1.00
H285   H     0.08350   0.43600   0.01050   0.03900  Uiso   1.00
O286   O     0.73695   0.98952   0.06133   0.03889  Uani   1.00
O287   O     0.67047   0.94785   0.92483   0.03740  Uani   1.00
N288   N     0.76578   0.93712   0.27053   0.03872  Uani   1.00
C289   C     0.77571   0.84384   0.28553   0.03853  Uani   1.00
C290   C     0.74313   0.90143   0.36103   0.04667  Uani   1.00
H291   H     0.72317   0.90823   0.42123   0.05600  Uiso   1.00
N292   N     0.78090   0.79868   0.29913   0.05169  Uani   1.00
C293   C     0.74699   0.85544   0.37223   0.05120  Uani   1.00
H294   H     0.73007   0.83153   0.43903   0.06200  Uiso   1.00
C295   C     0.79946   0.88105   0.19133   0.05167  Uani   1.00
H296   H     0.81957   0.87533   0.12973   0.06200  Uiso   1.00
C297   C     0.79367   0.92598   0.18783   0.05456  Uani   1.00
H298   H     0.81057   0.95093   0.12273   0.06500  Uiso   1.00
C299   C     0.68790   0.96169   0.03093   0.03217  Uani   1.00
H300   H     0.75017   0.76933   0.34383   0.03900  Uiso   1.00
O301   O     0.40361   0.32286   0.39467   0.03889  Uani   1.00
O302   O     0.33713   0.28119   0.25817   0.03740  Uani   1.00
N303   N     0.43244   0.27046   0.60387   0.03872  Uani   1.00
C304   C     0.44237   0.17718   0.61887   0.03853  Uani   1.00
C305   C     0.40979   0.23477   0.69437   0.04667  Uani   1.00
H306   H     0.38983   0.24157   0.75457   0.05600  Uiso   1.00
N307   N     0.44756   0.13202   0.63247   0.05169  Uani   1.00
C308   C     0.41365   0.18878   0.70557   0.05120  Uani   1.00
H309   H     0.39673   0.16487   0.77237   0.06200  Uiso   1.00
C310   C     0.46612   0.21439   0.52467   0.05167  Uani   1.00
H311   H     0.48623   0.20867   0.46307   0.06200  Uiso   1.00
C312   C     0.46033   0.25932   0.52117   0.05456  Uani   1.00
H313   H     0.47723   0.28427   0.45607   0.06500  Uiso   1.00
C314   C     0.35456   0.29503   0.36427   0.03217  Uani   1.00
H315   H     0.41683   0.10267   0.67717   0.03900  Uiso   1.00
O316   O     0.34381   0.41409   0.72800   0.03889  Uani   1.00
O317   O     0.38548   0.38928   0.59150   0.03740  Uani   1.00
N318   N     0.39621   0.49532   0.93720   0.03872  Uani   1.00
C319   C     0.48949   0.59853   0.95220   0.03853  Uani   1.00
C320   C     0.43190   0.50836   0.02770   0.04667  Uani   1.00
H321   H     0.42510   0.48160   0.08790   0.05600  Uiso   1.00
N322   N     0.53465   0.64888   0.96580   0.05169  Uani   1.00
C323   C     0.47789   0.55821   0.03890   0.05120  Uani   1.00
H324   H     0.50180   0.56520   0.10570   0.06200  Uiso   1.00
C325   C     0.45228   0.58507   0.85800   0.05167  Uani   1.00
H326   H     0.45800   0.61090   0.79640   0.06200  Uiso   1.00
C327   C     0.40735   0.53435   0.85450   0.05456  Uani   1.00
H328   H     0.38240   0.52630   0.78940   0.06500  Uiso   1.00
C329   C     0.37164   0.39287   0.69760   0.03217  Uani   1.00
H330   H     0.56400   0.64750   0.01050   0.03900  Uiso   1.00
O331   O     0.01048   0.74742   0.06133   0.03889  Uani   1.00
O332   O     0.05215   0.72261   0.92483   0.03740  Uani   1.00
N333   N     0.06288   0.82865   0.27053   0.03872  Uani   1.00
C334   C     0.15616   0.93186   0.28553   0.03853  Uani   1.00
C335   C     0.09857   0.84169   0.36103   0.04667  Uani   1.00
H336   H     0.09177   0.81493   0.42123   0.05600  Uiso   1.00
N337   N     0.20132   0.98221   0.29913   0.05169  Uani   1.00
C338   C     0.14456   0.89154   0.37223   0.05120  Uani   1.00
H339   H     0.16847   0.89853   0.43903   0.06200  Uiso   1.00
C340   C     0.11895   0.91840   0.19133   0.05167  Uani   1.00
H341   H     0.12467   0.94423   0.12973   0.06200  Uiso   1.00
C342   C     0.07402   0.86768   0.18783   0.05456  Uani   1.00
H343   H     0.04907   0.85963   0.12273   0.06500  Uiso   1.00
C344   C     0.03831   0.72620   0.03093   0.03217  Uani   1.00
H345   H     0.23067   0.98083   0.34383   0.03900  Uiso   1.00
O346   O     0.67714   0.08076   0.39467   0.03889  Uani   1.00
O347   O     0.71881   0.05595   0.25817   0.03740  Uani   1.00
N348   N     0.72954   0.16199   0.60387   0.03872  Uani   1.00
C349   C     0.82282   0.26520   0.61887   0.03853  Uani   1.00
C350   C     0.76523   0.17503   0.69437   0.04667  Uani   1.00
H351   H     0.75843   0.14827   0.75457   0.05600  Uiso   1.00
N352   N     0.86798   0.31555   0.63247   0.05169  Uani   1.00
C353   C     0.81122   0.22488   0.70557   0.05120  Uani   1.00
H354   H     0.83513   0.23187   0.77237   0.06200  Uiso   1.00
C355   C     0.78561   0.25174   0.52467   0.05167  Uani   1.00
H356   H     0.79133   0.27757   0.46307   0.06200  Uiso   1.00
C357   C     0.74068   0.20102   0.52117   0.05456  Uani   1.00
H358   H     0.71573   0.19297   0.45607   0.06500  Uiso   1.00
C359   C     0.70497   0.05954   0.36427   0.03217  Uani   1.00
H360   H     0.89733   0.31417   0.67717   0.03900  Uiso   1.00
O361   O     0.58591   0.92972   0.72800   0.03889  Uani   1.00
O362   O     0.61072   0.99620   0.59150   0.03740  Uani   1.00
N363   N     0.50468   0.90089   0.93720   0.03872  Uani   1.00
C364   C     0.40147   0.89096   0.95220   0.03853  Uani   1.00
C365   C     0.49164   0.92354   0.02770   0.04667  Uani   1.00
H366   H     0.51840   0.94350   0.08790   0.05600  Uiso   1.00
N367   N     0.35112   0.88577   0.96580   0.05169  Uani   1.00
C368   C     0.44179   0.91968   0.03890   0.05120  Uani   1.00
H369   H     0.43480   0.93660   0.10570   0.06200  Uiso   1.00
C370   C     0.41493   0.86721   0.85800   0.05167  Uani   1.00
H371   H     0.38910   0.84710   0.79640   0.06200  Uiso   1.00
C372   C     0.46565   0.87300   0.85450   0.05456  Uani   1.00
H373   H     0.47370   0.85610   0.78940   0.06500  Uiso   1.00
C374   C     0.60713   0.97877   0.69760   0.03217  Uani   1.00
H375   H     0.35250   0.91650   0.01050   0.03900  Uiso   1.00
O376   O     0.25258   0.26305   0.06133   0.03889  Uani   1.00
O377   O     0.27739   0.32953   0.92483   0.03740  Uani   1.00
N378   N     0.17135   0.23422   0.27053   0.03872  Uani   1.00
C379   C     0.06814   0.22429   0.28553   0.03853  Uani   1.00
C380   C     0.15831   0.25687   0.36103   0.04667  Uani   1.00
H381   H     0.18507   0.27683   0.42123   0.05600  Uiso   1.00
N382   N     0.01779   0.21910   0.29913   0.05169  Uani   1.00
C383   C     0.10846   0.25301   0.37223   0.05120  Uani   1.00
H384   H     0.10147   0.26993   0.43903   0.06200  Uiso   1.00
C385   C     0.08160   0.20054   0.19133   0.05167  Uani   1.00
H386   H     0.05577   0.18043   0.12973   0.06200  Uiso   1.00
C387   C     0.13232   0.20633   0.18783   0.05456  Uani   1.00
H388   H     0.14037   0.18943   0.12273   0.06500  Uiso   1.00
C389   C     0.27380   0.31210   0.03093   0.03217  Uani   1.00
H390   H     0.01917   0.24983   0.34383   0.03900  Uiso   1.00
O391   O     0.91924   0.59639   0.39467   0.03889  Uani   1.00
O392   O     0.94405   0.66287   0.25817   0.03740  Uani   1.00
N393   N     0.83801   0.56756   0.60387   0.03872  Uani   1.00
C394   C     0.73480   0.55763   0.61887   0.03853  Uani   1.00
C395   C     0.82497   0.59021   0.69437   0.04667  Uani   1.00
H396   H     0.85173   0.61017   0.75457   0.05600  Uiso   1.00
N397   N     0.68445   0.55244   0.63247   0.05169  Uani   1.00
C398   C     0.77512   0.58635   0.70557   0.05120  Uani   1.00
H399   H     0.76813   0.60327   0.77237   0.06200  Uiso   1.00
C400   C     0.74826   0.53388   0.52467   0.05167  Uani   1.00
H401   H     0.72243   0.51377   0.46307   0.06200  Uiso   1.00
C402   C     0.79898   0.53967   0.52117   0.05456  Uani   1.00
H403   H     0.80703   0.52277   0.45607   0.06500  Uiso   1.00
C404   C     0.94046   0.64544   0.36427   0.03217  Uani   1.00
H405   H     0.68583   0.58317   0.67717   0.03900  Uiso   1.00
O406   O     0.65619   0.07028   0.77200   0.03889  Uani   1.00
O407   O     0.61452   0.00380   0.90850   0.03740  Uani   1.00
N408   N     0.60379   0.09911   0.56280   0.03872  Uani   1.00
C409   C     0.51051   0.10904   0.54780   0.03853  Uani   1.00
C410   C     0.56810   0.07646   0.47230   0.04667  Uani   1.00
H411   H     0.57490   0.05650   0.41210   0.05600  Uiso   1.00
N412   N     0.46535   0.11423   0.53420   0.05169  Uani   1.00
C413   C     0.52211   0.08032   0.46110   0.05120  Uani   1.00
H414   H     0.49820   0.06340   0.39430   0.06200  Uiso   1.00
C415   C     0.54772   0.13279   0.64200   0.05167  Uani   1.00
H416   H     0.54200   0.15290   0.70360   0.06200  Uiso   1.00
C417   C     0.59265   0.12700   0.64550   0.05456  Uani   1.00
H418   H     0.61760   0.14390   0.71060   0.06500  Uiso   1.00
C419   C     0.62836   0.02123   0.80240   0.03217  Uani   1.00
H420   H     0.43600   0.08350   0.48950   0.03900  Uiso   1.00
O421   O     0.32286   0.40361   0.10533   0.03889  Uani   1.00
O422   O     0.28119   0.33713   0.24183   0.03740  Uani   1.00
N423   N     0.27046   0.43244   0.89613   0.03872  Uani   1.00
C424   C     0.17718   0.44237   0.88113   0.03853  Uani   1.00
C425   C     0.23477   0.40979   0.80563   0.04667  Uani   1.00
H426   H     0.24157   0.38983   0.74543   0.05600  Uiso   1.00
N427   N     0.13202   0.44756   0.86753   0.05169  Uani   1.00
C428   C     0.18878   0.41365   0.79443   0.05120  Uani   1.00
H429   H     0.16487   0.39673   0.72763   0.06200  Uiso   1.00
C430   C     0.21439   0.46612   0.97533   0.05167  Uani   1.00
H431   H     0.20867   0.48623   0.03693   0.06200  Uiso   1.00
C432   C     0.25932   0.46033   0.97883   0.05456  Uani   1.00
H433   H     0.28427   0.47723   0.04393   0.06500  Uiso   1.00
C434   C     0.29503   0.35456   0.13573   0.03217  Uani   1.00
H435   H     0.10267   0.41683   0.82283   0.03900  Uiso   1.00
O436   O     0.98952   0.73695   0.43867   0.03889  Uani   1.00
O437   O     0.94785   0.67047   0.57517   0.03740  Uani   1.00
N438   N     0.93712   0.76578   0.22947   0.03872  Uani   1.00
C439   C     0.84384   0.77571   0.21447   0.03853  Uani   1.00
C440   C     0.90143   0.74313   0.13897   0.04667  Uani   1.00
H441   H     0.90823   0.72317   0.07877   0.05600  Uiso   1.00
N442   N     0.79868   0.78090   0.20087   0.05169  Uani   1.00
C443   C     0.85544   0.74699   0.12777   0.05120  Uani   1.00
H444   H     0.83153   0.73007   0.06097   0.06200  Uiso   1.00
C445   C     0.88105   0.79946   0.30867   0.05167  Uani   1.00
H446   H     0.87533   0.81957   0.37027   0.06200  Uiso   1.00
C447   C     0.92598   0.79367   0.31217   0.05456  Uani   1.00
H448   H     0.95093   0.81057   0.37727   0.06500  Uiso   1.00
C449   C     0.96169   0.68790   0.46907   0.03217  Uani   1.00
H450   H     0.76933   0.75017   0.15617   0.03900  Uiso   1.00
O451   O     0.41409   0.34381   0.77200   0.03889  Uani   1.00
O452   O     0.38928   0.38548   0.90850   0.03740  Uani   1.00
N453   N     0.49532   0.39621   0.56280   0.03872  Uani   1.00
C454   C     0.59853   0.48949   0.54780   0.03853  Uani   1.00
C455   C     0.50836   0.43190   0.47230   0.04667  Uani   1.00
H456   H     0.48160   0.42510   0.41210   0.05600  Uiso   1.00
N457   N     0.64888   0.53465   0.53420   0.05169  Uani   1.00
C458   C     0.55821   0.47789   0.46110   0.05120  Uani   1.00
H459   H     0.56520   0.50180   0.39430   0.06200  Uiso   1.00
C460   C     0.58507   0.45228   0.64200   0.05167  Uani   1.00
H461   H     0.61090   0.45800   0.70360   0.06200  Uiso   1.00
C462   C     0.53435   0.40735   0.64550   0.05456  Uani   1.00
H463   H     0.52630   0.38240   0.71060   0.06500  Uiso   1.00
C464   C     0.39287   0.37164   0.80240   0.03217  Uani   1.00
H465   H     0.64750   0.56400   0.48950   0.03900  Uiso   1.00
O466   O     0.08076   0.67714   0.10533   0.03889  Uani   1.00
O467   O     0.05595   0.71881   0.24183   0.03740  Uani   1.00
N468   N     0.16199   0.72954   0.89613   0.03872  Uani   1.00
C469   C     0.26520   0.82282   0.88113   0.03853  Uani   1.00
C470   C     0.17503   0.76523   0.80563   0.04667  Uani   1.00
H471   H     0.14827   0.75843   0.74543   0.05600  Uiso   1.00
N472   N     0.31555   0.86798   0.86753   0.05169  Uani   1.00
C473   C     0.22488   0.81122   0.79443   0.05120  Uani   1.00
H474   H     0.23187   0.83513   0.72763   0.06200  Uiso   1.00
C475   C     0.25174   0.78561   0.97533   0.05167  Uani   1.00
H476   H     0.27757   0.79133   0.03693   0.06200  Uiso   1.00
C477   C     0.20102   0.74068   0.97883   0.05456  Uani   1.00
H478   H     0.19297   0.71573   0.04393   0.06500  Uiso   1.00
C479   C     0.05954   0.70497   0.13573   0.03217  Uani   1.00
H480   H     0.31417   0.89733   0.82283   0.03900  Uiso   1.00
O481   O     0.74742   0.01048   0.43867   0.03889  Uani   1.00
O482   O     0.72261   0.05215   0.57517   0.03740  Uani   1.00
N483   N     0.82865   0.06288   0.22947   0.03872  Uani   1.00
C484   C     0.93186   0.15616   0.21447   0.03853  Uani   1.00
C485   C     0.84169   0.09857   0.13897   0.04667  Uani   1.00
H486   H     0.81493   0.09177   0.07877   0.05600  Uiso   1.00
N487   N     0.98221   0.20132   0.20087   0.05169  Uani   1.00
C488   C     0.89154   0.14456   0.12777   0.05120  Uani   1.00
H489   H     0.89853   0.16847   0.06097   0.06200  Uiso   1.00
C490   C     0.91840   0.11895   0.30867   0.05167  Uani   1.00
H491   H     0.94423   0.12467   0.37027   0.06200  Uiso   1.00
C492   C     0.86768   0.07402   0.31217   0.05456  Uani   1.00
H493   H     0.85963   0.04907   0.37727   0.06500  Uiso   1.00
C494   C     0.72620   0.03831   0.46907   0.03217  Uani   1.00
H495   H     0.98083   0.23067   0.15617   0.03900  Uiso   1.00
O496   O     0.92972   0.58591   0.77200   0.03889  Uani   1.00
O497   O     0.99620   0.61072   0.90850   0.03740  Uani   1.00
N498   N     0.90089   0.50468   0.56280   0.03872  Uani   1.00
C499   C     0.89096   0.40147   0.54780   0.03853  Uani   1.00
C500   C     0.92354   0.49164   0.47230   0.04667  Uani   1.00
H501   H     0.94350   0.51840   0.41210   0.05600  Uiso   1.00
N502   N     0.88577   0.35112   0.53420   0.05169  Uani   1.00
C503   C     0.91968   0.44179   0.46110   0.05120  Uani   1.00
H504   H     0.93660   0.43480   0.39430   0.06200  Uiso   1.00
C505   C     0.86721   0.41493   0.64200   0.05167  Uani   1.00
H506   H     0.84710   0.38910   0.70360   0.06200  Uiso   1.00
C507   C     0.87300   0.46565   0.64550   0.05456  Uani   1.00
H508   H     0.85610   0.47370   0.71060   0.06500  Uiso   1.00
C509   C     0.97877   0.60713   0.80240   0.03217  Uani   1.00
H510   H     0.91650   0.35250   0.48950   0.03900  Uiso   1.00
O511   O     0.59639   0.91924   0.10533   0.03889  Uani   1.00
O512   O     0.66287   0.94405   0.24183   0.03740  Uani   1.00
N513   N     0.56756   0.83801   0.89613   0.03872  Uani   1.00
C514   C     0.55763   0.73480   0.88113   0.03853  Uani   1.00
C515   C     0.59021   0.82497   0.80563   0.04667  Uani   1.00
H516   H     0.61017   0.85173   0.74543   0.05600  Uiso   1.00
N517   N     0.55244   0.68445   0.86753   0.05169  Uani   1.00
C518   C     0.58635   0.77512   0.79443   0.05120  Uani   1.00
H519   H     0.60327   0.76813   0.72763   0.06200  Uiso   1.00
C520   C     0.53388   0.74826   0.97533   0.05167  Uani   1.00
H521   H     0.51377   0.72243   0.03693   0.06200  Uiso   1.00
C522   C     0.53967   0.79898   0.97883   0.05456  Uani   1.00
H523   H     0.52277   0.80703   0.04393   0.06500  Uiso   1.00
C524   C     0.64544   0.94046   0.13573   0.03217  Uani   1.00
H525   H     0.58317   0.68583   0.82283   0.03900  Uiso   1.00
O526   O     0.26305   0.25258   0.43867   0.03889  Uani   1.00
O527   O     0.32953   0.27739   0.57517   0.03740  Uani   1.00
N528   N     0.23422   0.17135   0.22947   0.03872  Uani   1.00
C529   C     0.22429   0.06814   0.21447   0.03853  Uani   1.00
C530   C     0.25687   0.15831   0.13897   0.04667  Uani   1.00
H531   H     0.27683   0.18507   0.07877   0.05600  Uiso   1.00
N532   N     0.21910   0.01779   0.20087   0.05169  Uani   1.00
C533   C     0.25301   0.10846   0.12777   0.05120  Uani   1.00
H534   H     0.26993   0.10147   0.06097   0.06200  Uiso   1.00
C535   C     0.20054   0.08160   0.30867   0.05167  Uani   1.00
H536   H     0.18043   0.05577   0.37027   0.06200  Uiso   1.00
C537   C     0.20633   0.13232   0.31217   0.05456  Uani   1.00
H538   H     0.18943   0.14037   0.37727   0.06500  Uiso   1.00
C539   C     0.31210   0.27380   0.46907   0.03217  Uani   1.00
H540   H     0.24983   0.01917   0.15617   0.03900  Uiso   1.00
Co541  Co    0.91829   0.33333   0.08333   0.02484  Uani   1.00
Co542  Co    0.66667   0.58495   0.08333   0.02484  Uani   1.00
Co543  Co    0.33333   0.91829   0.41667   0.02484  Uani   1.00
Co544  Co    0.41505   0.08171   0.08333   0.02484  Uani   1.00
Co545  Co    0.74838   0.74838   0.75000   0.02484  Uani   1.00
Co546  Co    0.00000   0.25162   0.75000   0.02484  Uani   1.00
Co547  Co    0.58495   0.66667   0.41667   0.02484  Uani   1.00
Co548  Co    0.25162  -0.00000   0.75000   0.02484  Uani   1.00
Co549  Co    0.08171   0.41505   0.41667   0.02484  Uani   1.00
Co550  Co    0.08171   0.66667   0.91667   0.02484  Uani   1.00
Co551  Co    0.74838  -0.00000   0.25000   0.02484  Uani   1.00
Co552  Co    0.41505   0.33333   0.58333   0.02484  Uani   1.00
Co553  Co    0.33333   0.41505   0.91667   0.02484  Uani   1.00
Co554  Co    0.00000   0.74838   0.25000   0.02484  Uani   1.00
Co555  Co    0.58495   0.91829   0.91667   0.02484  Uani   1.00
Co556  Co    0.25162   0.25162   0.25000   0.02484  Uani   1.00
Co557  Co    0.66667   0.08171   0.58333   0.02484  Uani   1.00
Co558  Co    0.91829   0.58495   0.58333   0.02484  Uani   1.00
loop_
_atom_site_aniso_label
_atom_site_aniso_U_11
_atom_site_aniso_U_22
_atom_site_aniso_U_33
_atom_site_aniso_U_12
_atom_site_aniso_U_13
_atom_site_aniso_U_23
O1        0.02740   0.03490   0.04960   0.01200   0.00360  -0.00090
O2        0.03000   0.03910   0.04460   0.01840   0.00150  -0.00150
N3        0.03800   0.03170   0.05110   0.02090   0.00320   0.00170
C4        0.03080   0.03360   0.05400   0.01820   0.00460  -0.00260
C5        0.04500   0.03840   0.06400   0.02640   0.01800   0.00420
N7        0.04630   0.03530   0.08000   0.02530   0.02320   0.00400
C8        0.05600   0.03530   0.06800   0.02710   0.02800   0.01360
C10       0.06100   0.06600   0.05100   0.04900   0.01710   0.00610
C12       0.06900   0.05900   0.05300   0.04500   0.02300   0.01540
C14       0.02520   0.02430   0.04770   0.01290   0.00210   0.00090
O16       0.02740   0.03490   0.04960   0.01200   0.00360  -0.00090
O17       0.03000   0.03910   0.04460   0.01840   0.00150  -0.00150
N18       0.03800   0.03170   0.05110   0.02090   0.00320   0.00170
C19       0.03080   0.03360   0.05400   0.01820   0.00460  -0.00260
C20       0.04500   0.03840   0.06400   0.02640   0.01800   0.00420
N22       0.04630   0.03530   0.08000   0.02530   0.02320   0.00400
C23       0.05600   0.03530   0.06800   0.02710   0.02800   0.01360
C25       0.06100   0.06600   0.05100   0.04900   0.01710   0.00610
C27       0.06900   0.05900   0.05300   0.04500   0.02300   0.01540
C29       0.02520   0.02430   0.04770   0.01290   0.00210   0.00090
O31       0.02740   0.03490   0.04960   0.01200   0.00360  -0.00090
O32       0.03000   0.03910   0.04460   0.01840   0.00150  -0.00150
N33       0.03800   0.03170   0.05110   0.02090   0.00320   0.00170
C34       0.03080   0.03360   0.05400   0.01820   0.00460  -0.00260
C35       0.04500   0.03840   0.06400   0.02640   0.01800   0.00420
N37       0.04630   0.03530   0.08000   0.02530   0.02320   0.00400
C38       0.05600   0.03530   0.06800   0.02710   0.02800   0.01360
C40       0.06100   0.06600   0.05100   0.04900   0.01710   0.00610
C42       0.06900   0.05900   0.05300   0.04500   0.02300   0.01540
C44       0.02520   0.02430   0.04770   0.01290   0.00210   0.00090
O46       0.03490   0.03830   0.04960   0.02290   0.00090   0.00450
O47       0.03910   0.03230   0.04460   0.02070   0.00150   0.00300
N48       0.03170   0.02790   0.05110   0.01080  -0.00170   0.00150
C49       0.03360   0.02800   0.05400   0.01540   0.00260   0.00720
C50       0.03840   0.03060   0.06400   0.01200  -0.00420   0.01380
N52       0.03530   0.03100   0.08000   0.01000  -0.00400   0.01920
C53       0.03530   0.03710   0.06800   0.00820  -0.01360   0.01440
C55       0.06600   0.02900   0.05100   0.01700  -0.00610   0.01100
C57       0.05900   0.03800   0.05300   0.01400  -0.01540   0.00760
C59       0.02430   0.02370   0.04770   0.01140  -0.00090   0.00120
O61       0.03490   0.03830   0.04960   0.02290   0.00090   0.00450
O62       0.03910   0.03230   0.04460   0.02070   0.00150   0.00300
N63       0.03170   0.02790   0.05110   0.01080  -0.00170   0.00150
C64       0.03360   0.02800   0.05400   0.01540   0.00260   0.00720
C65       0.03840   0.03060   0.06400   0.01200  -0.00420   0.01380
N67       0.03530   0.03100   0.08000   0.01000  -0.00400   0.01920
C68       0.03530   0.03710   0.06800   0.00820  -0.01360   0.01440
C70       0.06600   0.02900   0.05100   0.01700  -0.00610   0.01100
C72       0.05900   0.03800   0.05300   0.01400  -0.01540   0.00760
C74       0.02430   0.02370   0.04770   0.01140  -0.00090   0.00120
O76       0.03490   0.03830   0.04960   0.02290   0.00090   0.00450
O77       0.03910   0.03230   0.04460   0.02070   0.00150   0.00300
N78       0.03170   0.02790   0.05110   0.01080  -0.00170   0.00150
C79       0.03360   0.02800   0.05400   0.01540   0.00260   0.00720
C80       0.03840   0.03060   0.06400   0.01200  -0.00420   0.01380
N82       0.03530   0.03100   0.08000   0.01000  -0.00400   0.01920
C83       0.03530   0.03710   0.06800   0.00820  -0.01360   0.01440
C85       0.06600   0.02900   0.05100   0.01700  -0.00610   0.01100
C87       0.05900   0.03800   0.05300   0.01400  -0.01540   0.00760
C89       0.02430   0.02370   0.04770   0.01140  -0.00090   0.00120
O91       0.03830   0.02740   0.04960   0.01540  -0.00450  -0.00360
O92       0.03230   0.03000   0.04460   0.01160  -0.00300  -0.00150
N93       0.02790   0.03800   0.05110   0.01710  -0.00150  -0.00320
C94       0.02800   0.03080   0.05400   0.01260  -0.00720  -0.00460
C95       0.03060   0.04500   0.06400   0.01860  -0.01380  -0.01800
N97       0.03100   0.04630   0.08000   0.02100  -0.01920  -0.02320
C98       0.03710   0.05600   0.06800   0.02890  -0.01440  -0.02800
C100      0.02900   0.06100   0.05100   0.01200  -0.01100  -0.01710
C102      0.03800   0.06900   0.05300   0.02400  -0.00760  -0.02300
C104      0.02370   0.02520   0.04770   0.01230  -0.00120  -0.00210
O106      0.03830   0.02740   0.04960   0.01540  -0.00450  -0.00360
O107      0.03230   0.03000   0.04460   0.01160  -0.00300  -0.00150
N108      0.02790   0.03800   0.05110   0.01710  -0.00150  -0.00320
C109      0.02800   0.03080   0.05400   0.01260  -0.00720  -0.00460
C110      0.03060   0.04500   0.06400   0.01860  -0.01380  -0.01800
N112      0.03100   0.04630   0.08000   0.02100  -0.01920  -0.02320
C113      0.03710   0.05600   0.06800   0.02890  -0.01440  -0.02800
C115      0.02900   0.06100   0.05100   0.01200  -0.01100  -0.01710
C117      0.03800   0.06900   0.05300   0.02400  -0.00760  -0.02300
C119      0.02370   0.02520   0.04770   0.01230  -0.00120  -0.00210
O121      0.03830   0.02740   0.04960   0.01540  -0.00450  -0.00360
O122      0.03230   0.03000   0.04460   0.01160  -0.00300  -0.00150
N123      0.02790   0.03800   0.05110   0.01710  -0.00150  -0.00320
C124      0.02800   0.03080   0.05400   0.01260  -0.00720  -0.00460
C125      0.03060   0.04500   0.06400   0.01860  -0.01380  -0.01800
N127      0.03100   0.04630   0.08000   0.02100  -0.01920  -0.02320
C128      0.03710   0.05600   0.06800   0.02890  -0.01440  -0.02800
C130      0.02900   0.06100   0.05100   0.01200  -0.01100  -0.01710
C132      0.03800   0.06900   0.05300   0.02400  -0.00760  -0.02300
C134      0.02370   0.02520   0.04770   0.01230  -0.00120  -0.00210
O136      0.03490   0.02740   0.04960   0.01200   0.00090  -0.00360
O137      0.03910   0.03000   0.04460   0.01840   0.00150  -0.00150
N138      0.03170   0.03800   0.05110   0.02090  -0.00170  -0.00320
C139      0.03360   0.03080   0.05400   0.01820   0.00260  -0.00460
C140      0.03840   0.04500   0.06400   0.02640  -0.00420  -0.01800
N142      0.03530   0.04630   0.08000   0.02530  -0.00400  -0.02320
C143      0.03530   0.05600   0.06800   0.02710  -0.01360  -0.02800
C145      0.06600   0.06100   0.05100   0.04900  -0.00610  -0.01710
C147      0.05900   0.06900   0.05300   0.04500  -0.01540  -0.02300
C149      0.02430   0.02520   0.04770   0.01290  -0.00090  -0.00210
O151      0.03490   0.02740   0.04960   0.01200   0.00090  -0.00360
O152      0.03910   0.03000   0.04460   0.01840   0.00150  -0.00150
N153      0.03170   0.03800   0.05110   0.02090  -0.00170  -0.00320
C154      0.03360   0.03080   0.05400   0.01820   0.00260  -0.00460
C155      0.03840   0.04500   0.06400   0.02640  -0.00420  -0.01800
N157      0.03530   0.04630   0.08000   0.02530  -0.00400  -0.02320
C158      0.03530   0.05600   0.06800   0.02710  -0.01360  -0.02800
C160      0.06600   0.06100   0.05100   0.04900  -0.00610  -0.01710
C162      0.05900   0.06900   0.05300   0.04500  -0.01540  -0.02300
C164      0.02430   0.02520   0.04770   0.01290  -0.00090  -0.00210
O166      0.03490   0.02740   0.04960   0.01200   0.00090  -0.00360
O167      0.03910   0.03000   0.04460   0.01840   0.00150  -0.00150
N168      0.03170   0.03800   0.05110   0.02090  -0.00170  -0.00320
C169      0.03360   0.03080   0.05400   0.01820   0.00260  -0.00460
C170      0.03840   0.04500   0.06400   0.02640  -0.00420  -0.01800
N172      0.03530   0.04630   0.08000   0.02530  -0.00400  -0.02320
C173      0.03530   0.05600   0.06800   0.02710  -0.01360  -0.02800
C175      0.06600   0.06100   0.05100   0.04900  -0.00610  -0.01710
C177      0.05900   0.06900   0.05300   0.04500  -0.01540  -0.02300
C179      0.02430   0.02520   0.04770   0.01290  -0.00090  -0.00210
O181      0.03830   0.03490   0.04960   0.02290  -0.00450  -0.00090
O182      0.03230   0.03910   0.04460   0.02070  -0.00300  -0.00150
N183      0.02790   0.03170   0.05110   0.01080  -0.00150   0.00170
C184      0.02800   0.03360   0.05400   0.01540  -0.00720  -0.00260
C185      0.03060   0.03840   0.06400   0.01200  -0.01380   0.00420
N187      0.03100   0.03530   0.08000   0.01000  -0.01920   0.00400
C188      0.03710   0.03530   0.06800   0.00820  -0.01440   0.01360
C190      0.02900   0.06600   0.05100   0.01700  -0.01100   0.00610
C192      0.03800   0.05900   0.05300   0.01400  -0.00760   0.01540
C194      0.02370   0.02430   0.04770   0.01140  -0.00120   0.00090
O196      0.03830   0.03490   0.04960   0.02290  -0.00450  -0.00090
O197      0.03230   0.03910   0.04460   0.02070  -0.00300  -0.00150
N198      0.02790   0.03170   0.05110   0.01080  -0.00150   0.00170
C199      0.02800   0.03360   0.05400   0.01540  -0.00720  -0.00260
C200      0.03060   0.03840   0.06400   0.01200  -0.01380   0.00420
N202      0.03100   0.03530   0.08000   0.01000  -0.01920   0.00400
C203      0.03710   0.03530   0.06800   0.00820  -0.01440   0.01360
C205      0.02900   0.06600   0.05100   0.01700  -0.01100   0.00610
C207      0.03800   0.05900   0.05300   0.01400  -0.00760   0.01540
C209      0.02370   0.02430   0.04770   0.01140  -0.00120   0.00090
O211      0.03830   0.03490   0.04960   0.02290  -0.00450  -0.00090
O212      0.03230   0.03910   0.04460   0.02070  -0.00300  -0.00150
N213      0.02790   0.03170   0.05110   0.01080  -0.00150   0.00170
C214      0.02800   0.03360   0.05400   0.01540  -0.00720  -0.00260
C215      0.03060   0.03840   0.06400   0.01200  -0.01380   0.00420
N217      0.03100   0.03530   0.08000   0.01000  -0.01920   0.00400
C218      0.03710   0.03530   0.06800   0.00820  -0.01440   0.01360
C220      0.02900   0.06600   0.05100   0.01700  -0.01100   0.00610
C222      0.03800   0.05900   0.05300   0.01400  -0.00760   0.01540
C224      0.02370   0.02430   0.04770   0.01140  -0.00120   0.00090
O226      0.02740   0.03830   0.04960   0.01540   0.00360   0.00450
O227      0.03000   0.03230   0.04460   0.01160   0.00150   0.00300
N228      0.03800   0.02790   0.05110   0.01710   0.00320   0.00150
C229      0.03080   0.02800   0.05400   0.01260   0.00460   0.00720
C230      0.04500   0.03060   0.06400   0.01860   0.01800   0.01380
N232      0.04630   0.03100   0.08000   0.02100   0.02320   0.01920
C233      0.05600   0.03710   0.06800   0.02890   0.02800   0.01440
C235      0.06100   0.02900   0.05100   0.01200   0.01710   0.01100
C237      0.06900   0.03800   0.05300   0.02400   0.02300   0.00760
C239      0.02520   0.02370   0.04770   0.01230   0.00210   0.00120
O241      0.02740   0.03830   0.04960   0.01540   0.00360   0.00450
O242      0.03000   0.03230   0.04460   0.01160   0.00150   0.00300
N243      0.03800   0.02790   0.05110   0.01710   0.00320   0.00150
C244      0.03080   0.02800   0.05400   0.01260   0.00460   0.00720
C245      0.04500   0.03060   0.06400   0.01860   0.01800   0.01380
N247      0.04630   0.03100   0.08000   0.02100   0.02320   0.01920
C248      0.05600   0.03710   0.06800   0.02890   0.02800   0.01440
C250      0.06100   0.02900   0.05100   0.01200   0.01710   0.01100
C252      0.06900   0.03800   0.05300   0.02400   0.02300   0.00760
C254      0.02520   0.02370   0.04770   0.01230   0.00210   0.00120
O256      0.02740   0.03830   0.04960   0.01540   0.00360   0.00450
O257      0.03000   0.03230   0.04460   0.01160   0.00150   0.00300
N258      0.03800   0.02790   0.05110   0.01710   0.00320   0.00150
C259      0.03080   0.02800   0.05400   0.01260   0.00460   0.00720
C260      0.04500   0.03060   0.06400   0.01860   0.01800   0.01380
N262      0.04630   0.03100   0.08000   0.02100   0.02320   0.01920
C263      0.05600   0.03710   0.06800   0.02890   0.02800   0.01440
C265      0.06100   0.02900   0.05100   0.01200   0.01710   0.01100
C267      0.06900   0.03800   0.05300   0.02400   0.02300   0.00760
C269      0.02520   0.02370   0.04770   0.01230   0.00210   0.00120
O271      0.02740   0.03490   0.04960   0.01200   0.00360  -0.00090
O272      0.03000   0.03910   0.04460   0.01840   0.00150  -0.00150
N273      0.03800   0.03170   0.05110   0.02090   0.00320   0.00170
C274      0.03080   0.03360   0.05400   0.01820   0.00460  -0.00260
C275      0.04500   0.03840   0.06400   0.02640   0.01800   0.00420
N277      0.04630   0.03530   0.08000   0.02530   0.02320   0.00400
C278      0.05600   0.03530   0.06800   0.02710   0.02800   0.01360
C280      0.06100   0.06600   0.05100   0.04900   0.01710   0.00610
C282      0.06900   0.05900   0.05300   0.04500   0.02300   0.01540
C284      0.02520   0.02430   0.04770   0.01290   0.00210   0.00090
O286      0.02740   0.03490   0.04960   0.01200   0.00360  -0.00090
O287      0.03000   0.03910   0.04460   0.01840   0.00150  -0.00150
N288      0.03800   0.03170   0.05110   0.02090   0.00320   0.00170
C289      0.03080   0.03360   0.05400   0.01820   0.00460  -0.00260
C290      0.04500   0.03840   0.06400   0.02640   0.01800   0.00420
N292      0.04630   0.03530   0.08000   0.02530   0.02320   0.00400
C293      0.05600   0.03530   0.06800   0.02710   0.02800   0.01360
C295      0.06100   0.06600   0.05100   0.04900   0.01710   0.00610
C297      0.06900   0.05900   0.05300   0.04500   0.02300   0.01540
C299      0.02520   0.02430   0.04770   0.01290   0.00210   0.00090
O301      0.02740   0.03490   0.04960   0.01200   0.00360  -0.00090
O302      0.03000   0.03910   0.04460   0.01840   0.00150  -0.00150
N303      0.03800   0.03170   0.05110   0.02090   0.00320   0.00170
C304      0.03080   0.03360   0.05400   0.01820   0.00460  -0.00260
C305      0.04500   0.03840   0.06400   0.02640   0.01800   0.00420
N307      0.04630   0.03530   0.08000   0.02530   0.02320   0.00400
C308      0.05600   0.03530   0.06800   0.02710   0.02800   0.01360
C310      0.06100   0.06600   0.05100   0.04900   0.01710   0.00610
C312      0.06900   0.05900   0.05300   0.04500   0.02300   0.01540
C314      0.02520   0.02430   0.04770   0.01290   0.00210   0.00090
O316      0.03490   0.03830   0.04960   0.02290   0.00090   0.00450
O317      0.03910   0.03230   0.04460   0.02070   0.00150   0.00300
N318      0.03170   0.02790   0.05110   0.01080  -0.00170   0.00150
C319      0.03360   0.02800   0.05400   0.01540   0.00260   0.00720
C320      0.03840   0.03060   0.06400   0.01200  -0.00420   0.01380
N322      0.03530   0.03100   0.08000   0.01000  -0.00400   0.01920
C323      0.03530   0.03710   0.06800   0.00820  -0.01360   0.01440
C325      0.06600   0.02900   0.05100   0.01700  -0.00610   0.01100
C327      0.05900   0.03800   0.05300   0.01400  -0.01540   0.00760
C329      0.02430   0.02370   0.04770   0.01140  -0.00090   0.00120
O331      0.03490   0.03830   0.04960   0.02290   0.00090   0.00450
O332      0.03910   0.03230   0.04460   0.02070   0.00150   0.00300
N333      0.03170   0.02790   0.05110   0.01080  -0.00170   0.00150
C334      0.03360   0.02800   0.05400   0.01540   0.00260   0.00720
C335      0.03840   0.03060   0.06400   0.01200  -0.00420   0.01380
N337      0.03530   0.03100   0.08000   0.01000  -0.00400   0.01920
C338      0.03530   0.03710   0.06800   0.00820  -0.01360   0.01440
C340      0.06600   0.02900   0.05100   0.01700  -0.00610   0.01100
C342      0.05900   0.03800   0.05300   0.01400  -0.01540   0.00760
C344      0.02430   0.02370   0.04770   0.01140  -0.00090   0.00120
O346      0.03490   0.03830   0.04960   0.02290   0.00090   0.00450
O347      0.03910   0.03230   0.04460   0.02070   0.00150   0.00300
N348      0.03170   0.02790   0.05110   0.01080  -0.00170   0.00150
C349      0.03360   0.02800   0.05400   0.01540   0.00260   0.00720
C350      0.03840   0.03060   0.06400   0.01200  -0.00420   0.01380
N352      0.03530   0.03100   0.08000   0.01000  -0.00400   0.01920
C353      0.03530   0.03710   0.06800   0.00820  -0.01360   0.01440
C355      0.06600   0.02900   0.05100   0.01700  -0.00610   0.01100
C357      0.05900   0.03800   0.05300   0.01400  -0.01540   0.00760
C359      0.02430   0.02370   0.04770   0.01140  -0.00090   0.00120
O361      0.03830   0.02740   0.04960   0.01540  -0.00450  -0.00360
O362      0.03230   0.03000   0.04460   0.01160  -0.00300  -0.00150
N363      0.02790   0.03800   0.05110   0.01710  -0.00150  -0.00320
C364      0.02800   0.03080   0.05400   0.01260  -0.00720  -0.00460
C365      0.03060   0.04500   0.06400   0.01860  -0.01380  -0.01800
N367      0.03100   0.04630   0.08000   0.02100  -0.01920  -0.02320
C368      0.03710   0.05600   0.06800   0.02890  -0.01440  -0.02800
C370      0.02900   0.06100   0.05100   0.01200  -0.01100  -0.01710
C372      0.03800   0.06900   0.05300   0.02400  -0.00760  -0.02300
C374      0.02370   0.02520   0.04770   0.01230  -0.00120  -0.00210
O376      0.03830   0.02740   0.04960   0.01540  -0.00450  -0.00360
O377      0.03230   0.03000   0.04460   0.01160  -0.00300  -0.00150
N378      0.02790   0.03800   0.05110   0.01710  -0.00150  -0.00320
C379      0.02800   0.03080   0.05400   0.01260  -0.00720  -0.00460
C380      0.03060   0.04500   0.06400   0.01860  -0.01380  -0.01800
N382      0.03100   0.04630   0.08000   0.02100  -0.01920  -0.02320
C383      0.03710   0.05600   0.06800   0.02890  -0.01440  -0.02800
C385      0.02900   0.06100   0.05100   0.01200  -0.01100  -0.01710
C387      0.03800   0.06900   0.05300   0.02400  -0.00760  -0.02300
C389      0.02370   0.02520   0.04770   0.01230  -0.00120  -0.00210
O391      0.03830   0.02740   0.04960   0.01540  -0.00450  -0.00360
O392      0.03230   0.03000   0.04460   0.01160  -0.00300  -0.00150
N393      0.02790   0.03800   0.05110   0.01710  -0.00150  -0.00320
C394      0.02800   0.03080   0.05400   0.01260  -0.00720  -0.00460
C395      0.03060   0.04500   0.06400   0.01860  -0.01380  -0.01800
N397      0.03100   0.04630   0.08000   0.02100  -0.01920  -0.02320
C398      0.03710   0.05600   0.06800   0.02890  -0.01440  -0.02800
C400      0.02900   0.06100   0.05100   0.01200  -0.01100  -0.01710
C402      0.03800   0.06900   0.05300   0.02400  -0.00760  -0.02300
C404      0.02370   0.02520   0.04770   0.01230  -0.00120  -0.00210
O406      0.03490   0.02740   0.04960   0.01200   0.00090  -0.00360
O407      0.03910   0.03000   0.04460   0.01840   0.00150  -0.00150
N408      0.03170   0.03800   0.05110   0.02090  -0.00170  -0.00320
C409      0.03360   0.03080   0.05400   0.01820   0.00260  -0.00460
C410      0.03840   0.04500   0.06400   0.02640  -0.00420  -0.01800
N412      0.03530   0.04630   0.08000   0.02530  -0.00400  -0.02320
C413      0.03530   0.05600   0.06800   0.02710  -0.01360  -0.02800
C415      0.06600   0.06100   0.05100   0.04900  -0.00610  -0.01710
C417      0.05900   0.06900   0.05300   0.04500  -0.01540  -0.02300
C419      0.02430   0.02520   0.04770   0.01290  -0.00090  -0.00210
O421      0.03490   0.02740   0.04960   0.01200   0.00090  -0.00360
O422      0.03910   0.03000   0.04460   0.01840   0.00150  -0.00150
N423      0.03170   0.03800   0.05110   0.02090  -0.00170  -0.00320
C424      0.03360   0.03080   0.05400   0.01820   0.00260  -0.00460
C425      0.03840   0.04500   0.06400   0.02640  -0.00420  -0.01800
N427      0.03530   0.04630   0.08000   0.02530  -0.00400  -0.02320
C428      0.03530   0.05600   0.06800   0.02710  -0.01360  -0.02800
C430      0.06600   0.06100   0.05100   0.04900  -0.00610  -0.01710
C432      0.05900   0.06900   0.05300   0.04500  -0.01540  -0.02300
C434      0.02430   0.02520   0.04770   0.01290  -0.00090  -0.00210
O436      0.03490   0.02740   0.04960   0.01200   0.00090  -0.00360
O437      0.03910   0.03000   0.04460   0.01840   0.00150  -0.00150
N438      0.03170   0.03800   0.05110   0.02090  -0.00170  -0.00320
C439      0.03360   0.03080   0.05400   0.01820   0.00260  -0.00460
C440      0.03840   0.04500   0.06400   0.02640  -0.00420  -0.01800
N442      0.03530   0.04630   0.08000   0.02530  -0.00400  -0.02320
C443      0.03530   0.05600   0.06800   0.02710  -0.01360  -0.02800
C445      0.06600   0.06100   0.05100   0.04900  -0.00610  -0.01710
C447      0.05900   0.06900   0.05300   0.04500  -0.01540  -0.02300
C449      0.02430   0.02520   0.04770   0.01290  -0.00090  -0.00210
O451      0.03830   0.03490   0.04960   0.02290  -0.00450  -0.00090
O452      0.03230   0.03910   0.04460   0.02070  -0.00300  -0.00150
N453      0.02790   0.03170   0.05110   0.01080  -0.00150   0.00170
C454      0.02800   0.03360   0.05400   0.01540  -0.00720  -0.00260
C455      0.03060   0.03840   0.06400   0.01200  -0.01380   0.00420
N457      0.03100   0.03530   0.08000   0.01000  -0.01920   0.00400
C458      0.03710   0.03530   0.06800   0.00820  -0.01440   0.01360
C460      0.02900   0.06600   0.05100   0.01700  -0.01100   0.00610
C462      0.03800   0.05900   0.05300   0.01400  -0.00760   0.01540
C464      0.02370   0.02430   0.04770   0.01140  -0.00120   0.00090
O466      0.03830   0.03490   0.04960   0.02290  -0.00450  -0.00090
O467      0.03230   0.03910   0.04460   0.02070  -0.00300  -0.00150
N468      0.02790   0.03170   0.05110   0.01080  -0.00150   0.00170
C469      0.02800   0.03360   0.05400   0.01540  -0.00720  -0.00260
C470      0.03060   0.03840   0.06400   0.01200  -0.01380   0.00420
N472      0.03100   0.03530   0.08000   0.01000  -0.01920   0.00400
C473      0.03710   0.03530   0.06800   0.00820  -0.01440   0.01360
C475      0.02900   0.06600   0.05100   0.01700  -0.01100   0.00610
C477      0.03800   0.05900   0.05300   0.01400  -0.00760   0.01540
C479      0.02370   0.02430   0.04770   0.01140  -0.00120   0.00090
O481      0.03830   0.03490   0.04960   0.02290  -0.00450  -0.00090
O482      0.03230   0.03910   0.04460   0.02070  -0.00300  -0.00150
N483      0.02790   0.03170   0.05110   0.01080  -0.00150   0.00170
C484      0.02800   0.03360   0.05400   0.01540  -0.00720  -0.00260
C485      0.03060   0.03840   0.06400   0.01200  -0.01380   0.00420
N487      0.03100   0.03530   0.08000   0.01000  -0.01920   0.00400
C488      0.03710   0.03530   0.06800   0.00820  -0.01440   0.01360
C490      0.02900   0.06600   0.05100   0.01700  -0.01100   0.00610
C492      0.03800   0.05900   0.05300   0.01400  -0.00760   0.01540
C494      0.02370   0.02430   0.04770   0.01140  -0.00120   0.00090
O496      0.02740   0.03830   0.04960   0.01540   0.00360   0.00450
O497      0.03000   0.03230   0.04460   0.01160   0.00150   0.00300
N498      0.03800   0.02790   0.05110   0.01710   0.00320   0.00150
C499      0.03080   0.02800   0.05400   0.01260   0.00460   0.00720
C500      0.04500   0.03060   0.06400   0.01860   0.01800   0.01380
N502      0.04630   0.03100   0.08000   0.02100   0.02320   0.01920
C503      0.05600   0.03710   0.06800   0.02890   0.02800   0.01440
C505      0.06100   0.02900   0.05100   0.01200   0.01710   0.01100
C507      0.06900   0.03800   0.05300   0.02400   0.02300   0.00760
C509      0.02520   0.02370   0.04770   0.01230   0.00210   0.00120
O511      0.02740   0.03830   0.04960   0.01540   0.00360   0.00450
O512      0.03000   0.03230   0.04460   0.01160   0.00150   0.00300
N513      0.03800   0.02790   0.05110   0.01710   0.00320   0.00150
C514      0.03080   0.02800   0.05400   0.01260   0.00460   0.00720
C515      0.04500   0.03060   0.06400   0.01860   0.01800   0.01380
N517      0.04630   0.03100   0.08000   0.02100   0.02320   0.01920
C518      0.05600   0.03710   0.06800   0.02890   0.02800   0.01440
C520      0.06100   0.02900   0.05100   0.01200   0.01710   0.01100
C522      0.06900   0.03800   0.05300   0.02400   0.02300   0.00760
C524      0.02520   0.02370   0.04770   0.01230   0.00210   0.00120
O526      0.02740   0.03830   0.04960   0.01540   0.00360   0.00450
O527      0.03000   0.03230   0.04460   0.01160   0.00150   0.00300
N528      0.03800   0.02790   0.05110   0.01710   0.00320   0.00150
C529      0.03080   0.02800   0.05400   0.01260   0.00460   0.00720
C530      0.04500   0.03060   0.06400   0.01860   0.01800   0.01380
N532      0.04630   0.03100   0.08000   0.02100   0.02320   0.01920
C533      0.05600   0.03710   0.06800   0.02890   0.02800   0.01440
C535      0.06100   0.02900   0.05100   0.01200   0.01710   0.01100
C537      0.06900   0.03800   0.05300   0.02400   0.02300   0.00760
C539      0.02520   0.02370   0.04770   0.01230   0.00210   0.00120
Co541     0.01919   0.01850   0.03660   0.00925  -0.00025  -0.00050
Co542     0.01850   0.01919   0.03660   0.00925   0.00050   0.00025
Co543     0.01850   0.01919   0.03660   0.00925   0.00050   0.00025
Co544     0.01919   0.01919   0.03660   0.00994  -0.00025   0.00025
Co545     0.01919   0.01919   0.03660   0.00994  -0.00025   0.00025
Co546     0.01850   0.01919   0.03660   0.00925   0.00050   0.00025
Co547     0.01919   0.01850   0.03660   0.00925  -0.00025  -0.00050
Co548     0.01919   0.01850   0.03660   0.00925  -0.00025  -0.00050
Co549     0.01919   0.01919   0.03660   0.00994  -0.00025   0.00025
Co550     0.01919   0.01850   0.03660   0.00925  -0.00025  -0.00050
Co551     0.01919   0.01850   0.03660   0.00925  -0.00025  -0.00050
Co552     0.01919   0.01850   0.03660   0.00925  -0.00025  -0.00050
Co553     0.01850   0.01919   0.03660   0.00925   0.00050   0.00025
Co554     0.01850   0.01919   0.03660   0.00925   0.00050   0.00025
Co555     0.01919   0.01919   0.03660   0.00994  -0.00025   0.00025
Co556     0.01919   0.01919   0.03660   0.00994  -0.00025   0.00025
Co557     0.01850   0.01919   0.03660   0.00925   0.00050   0.00025
Co558     0.01919   0.01919   0.03660   0.00994  -0.00025   0.00025
loop_
_geom_bond_atom_site_label_1
_geom_bond_atom_site_label_2
_geom_bond_distance
_geom_bond_site_symmetry_2
_ccdc_geom_bond_type
O1     Co541   2.091   .     S
O1     C14     1.257   .     S
O2     C14     1.248   .     S
O2     Co549   2.142   1_655 S
N3     Co541   2.093   .     S
N3     C5      1.333   1_554 S
N3     C12     1.343   .     S
C4     N7      1.373   .     S
C4     C8      1.396   1_554 S
C4     C10     1.388   .     S
C5     N3      1.333   1_556 S
C5     H6      0.951   .     S
C5     C8      1.372   .     S
N7     H15     0.986   1_554 S
N7     N172    1.389   .     S
C8     C4      1.396   1_556 S
C8     H9      0.950   .     S
C10    H11     0.950   .     S
C10    C12     1.369   .     S
C12    H13     0.950   .     S
C14    C239    1.554   1_655 S
H15    N7      0.986   1_556 S
O16    Co547   2.091   .     S
O16    C29     1.257   .     S
O17    C29     1.248   .     S
O17    Co545   2.142   .     S
N18    Co547   2.093   .     S
N18    C20     1.333   .     S
N18    C27     1.343   .     S
C19    N22     1.373   .     S
C19    C23     1.396   .     S
C19    C25     1.388   .     S
C20    H21     0.951   .     S
C20    C23     1.372   .     S
N22    H30     0.986   .     S
N22    N142    1.389   .     S
C23    H24     0.950   .     S
C25    H26     0.950   .     S
C25    C27     1.369   .     S
C27    H28     0.950   .     S
C29    C254    1.554   .     S
O31    Co548   2.091   .     S
O31    C44     1.257   .     S
O32    C44     1.248   1_554 S
O32    Co544   2.142   .     S
N33    Co548   2.093   .     S
N33    C35     1.333   .     S
N33    C42     1.343   .     S
C34    N37     1.373   .     S
C34    C38     1.396   .     S
C34    C40     1.388   .     S
C35    H36     0.951   .     S
C35    C38     1.372   .     S
N37    H45     0.986   .     S
N37    N157    1.389   .     S
C38    H39     0.950   .     S
C40    H41     0.950   .     S
C40    C42     1.369   .     S
C42    H43     0.950   .     S
C44    O32     1.248   1_556 S
C44    C269    1.554   .     S
O46    Co542   2.091   .     S
O46    C59     1.257   .     S
O47    C59     1.248   .     S
O47    Co547   2.142   .     S
N48    Co542   2.093   .     S
N48    C50     1.333   1_554 S
N48    C57     1.343   .     S
C49    N52     1.373   .     S
C49    C53     1.396   1_554 S
C49    C55     1.388   .     S
C50    N48     1.333   1_556 S
C50    H51     0.951   .     S
C50    C53     1.372   .     S
N52    H60     0.986   1_554 S
N52    N262    1.389   .     S
C53    C49     1.396   1_556 S
C53    H54     0.950   .     S
C55    H56     0.950   .     S
C55    C57     1.369   .     S
C57    H58     0.950   .     S
C59    C194    1.554   .     S
H60    N52     0.986   1_556 S
O61    Co543   2.091   .     S
O61    C74     1.257   .     S
O62    C74     1.248   .     S
O62    Co548   2.142   1_565 S
N63    Co543   2.093   .     S
N63    C65     1.333   .     S
N63    C72     1.343   .     S
C64    N67     1.373   .     S
C64    C68     1.396   .     S
C64    C70     1.388   .     S
C65    H66     0.951   .     S
C65    C68     1.372   .     S
N67    H75     0.986   .     S
N67    N232    1.389   .     S
C68    H69     0.950   .     S
C70    H71     0.950   .     S
C70    C72     1.369   .     S
C72    H73     0.950   .     S
C74    C209    1.554   .     S
O76    Co546   2.091   1_655 S
O76    C89     1.257   .     S
O77    C89     1.248   1_554 S
O77    Co541   2.142   .     S
N78    Co546   2.093   1_655 S
N78    C80     1.333   .     S
N78    C87     1.343   .     S
C79    N82     1.373   .     S
C79    C83     1.396   .     S
C79    C85     1.388   .     S
C80    H81     0.951   .     S
C80    C83     1.372   .     S
N82    H90     0.986   .     S
N82    N247    1.389   1_545 S
C83    H84     0.950   .     S
C85    H86     0.950   .     S
C85    C87     1.369   .     S
C87    H88     0.950   .     S
C89    O77     1.248   1_556 S
C89    C224    1.554   .     S
O91    Co544   2.091   .     S
O91    C104    1.257   .     S
O92    C104    1.248   .     S
O92    Co543   2.142   1_545 S
N93    Co544   2.093   .     S
N93    C95     1.333   1_554 S
N93    C102    1.343   .     S
C94    N97     1.373   .     S
C94    C98     1.396   1_554 S
C94    C100    1.388   .     S
C95    N93     1.333   1_556 S
C95    H96     0.951   .     S
C95    C98     1.372   .     S
N97    H105    0.986   1_554 S
N97    N217    1.389   .     S
C98    C94     1.396   1_556 S
C98    H99     0.950   .     S
C100   H101    0.950   .     S
C100   C102    1.369   .     S
C102   H103    0.950   .     S
C104   C149    1.554   1_545 S
H105   N97     0.986   1_556 S
O106   Co549   2.091   .     S
O106   C119    1.257   .     S
O107   C119    1.248   .     S
O107   Co546   2.142   .     S
N108   Co549   2.093   .     S
N108   C110    1.333   .     S
N108   C117    1.343   .     S
C109   N112    1.373   .     S
C109   C113    1.396   .     S
C109   C115    1.388   .     S
C110   H111    0.951   .     S
C110   C113    1.372   .     S
N112   H120    0.986   .     S
N112   N187    1.389   .     S
C113   H114    0.950   .     S
C115   H116    0.950   .     S
C115   C117    1.369   .     S
C117   H118    0.950   .     S
C119   C164    1.554   .     S
O121   Co545   2.091   .     S
O121   C134    1.257   .     S
O122   C134    1.248   1_554 S
O122   Co542   2.142   .     S
N123   Co545   2.093   .     S
N123   C125    1.333   .     S
N123   C132    1.343   .     S
C124   N127    1.373   .     S
C124   C128    1.396   .     S
C124   C130    1.388   .     S
C125   H126    0.951   .     S
C125   C128    1.372   .     S
N127   H135    0.986   .     S
N127   N202    1.389   1_655 S
C128   H129    0.950   .     S
C130   H131    0.950   .     S
C130   C132    1.369   .     S
C132   H133    0.950   .     S
C134   O122    1.248   1_556 S
C134   C179    1.554   .     S
O136   Co543   2.091   .     S
O136   C149    1.257   .     S
O137   C149    1.248   .     S
O137   Co544   2.142   1_565 S
N138   Co543   2.093   .     S
N138   C140    1.333   .     S
N138   C147    1.343   .     S
C139   N142    1.373   .     S
C139   C143    1.396   .     S
C139   C145    1.388   .     S
C140   H141    0.951   .     S
C140   C143    1.372   .     S
N142   H150    0.986   .     S
C143   H144    0.950   .     S
C145   H146    0.950   .     S
C145   C147    1.369   .     S
C147   H148    0.950   .     S
C149   C104    1.554   1_565 S
O151   Co546   2.091   .     S
O151   C164    1.257   .     S
O152   C164    1.248   .     S
O152   Co549   2.142   .     S
N153   Co546   2.093   .     S
N153   C155    1.333   .     S
N153   C162    1.343   .     S
C154   N157    1.373   .     S
C154   C158    1.396   .     S
C154   C160    1.388   .     S
C155   H156    0.951   .     S
C155   C158    1.372   .     S
N157   H165    0.986   .     S
C158   H159    0.950   .     S
C160   H161    0.950   .     S
C160   C162    1.369   .     S
C162   H163    0.950   .     S
O166   Co542   2.091   1_556 S
O166   C179    1.257   .     S
O167   C179    1.248   .     S
O167   Co545   2.142   .     S
N168   Co542   2.093   .     S
N168   C170    1.333   .     S
N168   C177    1.343   .     S
C169   N172    1.373   .     S
C169   C173    1.396   .     S
C169   C175    1.388   .     S
C170   H171    0.951   .     S
C170   C173    1.372   .     S
N172   H180    0.986   .     S
C173   H174    0.950   .     S
C175   H176    0.950   1_554 S
C175   C177    1.369   .     S
H176   C175    0.950   1_556 S
C177   H178    0.950   1_554 S
H178   C177    0.950   1_556 S
O181   Co547   2.091   .     S
O181   C194    1.257   .     S
O182   C194    1.248   .     S
O182   Co542   2.142   .     S
N183   Co547   2.093   .     S
N183   C185    1.333   .     S
N183   C192    1.343   .     S
C184   N187    1.373   .     S
C184   C188    1.396   .     S
C184   C190    1.388   .     S
C185   H186    0.951   .     S
C185   C188    1.372   .     S
N187   H195    0.986   .     S
C188   H189    0.950   .     S
C190   H191    0.950   .     S
C190   C192    1.369   .     S
C192   H193    0.950   .     S
O196   Co548   2.091   1_565 S
O196   C209    1.257   .     S
O197   C209    1.248   .     S
O197   Co543   2.142   .     S
N198   Co548   2.093   1_565 S
N198   C200    1.333   .     S
N198   C207    1.343   .     S
C199   N202    1.373   .     S
C199   C203    1.396   .     S
C199   C205    1.388   .     S
C200   H201    0.951   .     S
C200   C203    1.372   .     S
N202   H210    0.986   .     S
N202   N127    1.389   1_455 S
C203   H204    0.950   .     S
C205   H206    0.950   .     S
C205   C207    1.369   .     S
C207   H208    0.950   .     S
O211   Co541   2.091   1_556 S
O211   C224    1.257   .     S
O212   C224    1.248   .     S
O212   Co546   2.142   1_655 S
N213   Co541   2.093   .     S
N213   C215    1.333   .     S
N213   C222    1.343   .     S
C214   N217    1.373   .     S
C214   C218    1.396   .     S
C214   C220    1.388   .     S
C215   H216    0.951   .     S
C215   C218    1.372   .     S
N217   H225    0.986   .     S
C218   H219    0.950   .     S
C220   H221    0.950   1_554 S
C220   C222    1.369   .     S
H221   C220    0.950   1_556 S
C222   H223    0.950   1_554 S
H223   C222    0.950   1_556 S
O226   Co549   2.091   .     S
O226   C239    1.257   .     S
O227   C239    1.248   .     S
O227   Co541   2.142   1_455 S
N228   Co549   2.093   .     S
N228   C230    1.333   .     S
N228   C237    1.343   .     S
C229   N232    1.373   .     S
C229   C233    1.396   .     S
C229   C235    1.388   .     S
C230   H231    0.951   .     S
C230   C233    1.372   .     S
N232   H240    0.986   .     S
C233   H234    0.950   .     S
C235   H236    0.950   .     S
C235   C237    1.369   .     S
C237   H238    0.950   .     S
C239   C14     1.554   1_455 S
O241   Co545   2.091   .     S
O241   C254    1.257   .     S
O242   C254    1.248   .     S
O242   Co547   2.142   .     S
N243   Co545   2.093   .     S
N243   C245    1.333   .     S
N243   C252    1.343   .     S
C244   N247    1.373   .     S
C244   C248    1.396   .     S
C244   C250    1.388   .     S
C245   H246    0.951   .     S
C245   C248    1.372   .     S
N247   H255    0.986   .     S
N247   N82     1.389   1_565 S
C248   H249    0.950   .     S
C250   H251    0.950   .     S
C250   C252    1.369   .     S
C252   H253    0.950   .     S
O256   Co544   2.091   1_556 S
O256   C269    1.257   .     S
O257   C269    1.248   .     S
O257   Co548   2.142   .     S
N258   Co544   2.093   .     S
N258   C260    1.333   .     S
N258   C267    1.343   .     S
C259   N262    1.373   .     S
C259   C263    1.396   .     S
C259   C265    1.388   .     S
C260   H261    0.951   .     S
C260   C263    1.372   .     S
N262   H270    0.986   .     S
C263   H264    0.950   .     S
C265   H266    0.950   1_554 S
C265   C267    1.369   .     S
H266   C265    0.950   1_556 S
C267   H268    0.950   1_554 S
H268   C267    0.950   1_556 S
O271   Co550   2.091   .     S
O271   C284    1.257   .     S
O272   C284    1.248   .     S
O272   Co558   2.142   1_455 S
N273   Co550   2.093   .     S
N273   C275    1.333   1_556 S
N273   C282    1.343   .     S
C274   N277    1.373   .     S
C274   C278    1.396   1_556 S
C274   C280    1.388   .     S
C275   N273    1.333   1_554 S
C275   H276    0.951   .     S
C275   C278    1.372   .     S
N277   H285    0.986   1_556 S
N277   N427    1.389   .     S
C278   C274    1.396   1_554 S
C278   H279    0.950   .     S
C280   H281    0.950   .     S
C280   C282    1.369   .     S
C282   H283    0.950   .     S
C284   C509    1.554   1_455 S
H285   N277    0.986   1_554 S
O286   Co551   2.091   1_565 S
O286   C299    1.257   .     S
O287   C299    1.248   1_556 S
O287   Co555   2.142   .     S
N288   Co551   2.093   1_565 S
N288   C290    1.333   .     S
N288   C297    1.343   .     S
C289   N292    1.373   .     S
C289   C293    1.396   .     S
C289   C295    1.388   .     S
C290   H291    0.951   .     S
C290   C293    1.372   .     S
N292   H300    0.986   .     S
N292   N442    1.389   .     S
C293   H294    0.950   .     S
C295   H296    0.950   .     S
C295   C297    1.369   .     S
C297   H298    0.950   .     S
C299   O287    1.248   1_554 S
C299   C524    1.554   .     S
O301   Co552   2.091   .     S
O301   C314    1.257   .     S
O302   C314    1.248   .     S
O302   Co556   2.142   .     S
N303   Co552   2.093   .     S
N303   C305    1.333   .     S
N303   C312    1.343   .     S
C304   N307    1.373   .     S
C304   C308    1.396   .     S
C304   C310    1.388   .     S
C305   H306    0.951   .     S
C305   C308    1.372   .     S
N307   H315    0.986   .     S
N307   N412    1.389   .     S
C308   H309    0.950   .     S
C310   H311    0.950   .     S
C310   C312    1.369   .     S
C312   H313    0.950   .     S
C314   C539    1.554   .     S
O316   Co553   2.091   .     S
O316   C329    1.257   .     S
O317   C329    1.248   .     S
O317   Co552   2.142   .     S
N318   Co553   2.093   .     S
N318   C320    1.333   1_556 S
N318   C327    1.343   .     S
C319   N322    1.373   .     S
C319   C323    1.396   1_556 S
C319   C325    1.388   .     S
C320   N318    1.333   1_554 S
C320   H321    0.951   .     S
C320   C323    1.372   .     S
N322   H330    0.986   1_556 S
N322   N517    1.389   .     S
C323   C319    1.396   1_554 S
C323   H324    0.950   .     S
C325   H326    0.950   .     S
C325   C327    1.369   .     S
C327   H328    0.950   .     S
C329   C464    1.554   .     S
H330   N322    0.986   1_554 S
O331   Co554   2.091   .     S
O331   C344    1.257   .     S
O332   C344    1.248   1_556 S
O332   Co550   2.142   .     S
N333   Co554   2.093   .     S
N333   C335    1.333   .     S
N333   C342    1.343   .     S
C334   N337    1.373   .     S
C334   C338    1.396   .     S
C334   C340    1.388   .     S
C335   H336    0.951   .     S
C335   C338    1.372   .     S
N337   H345    0.986   .     S
N337   N532    1.389   1_565 S
C338   H339    0.950   .     S
C340   H341    0.950   .     S
C340   C342    1.369   .     S
C342   H343    0.950   .     S
C344   O332    1.248   1_554 S
C344   C479    1.554   .     S
O346   Co557   2.091   .     S
O346   C359    1.257   .     S
O347   C359    1.248   .     S
O347   Co551   2.142   .     S
N348   Co557   2.093   .     S
N348   C350    1.333   .     S
N348   C357    1.343   .     S
C349   N352    1.373   .     S
C349   C353    1.396   .     S
C349   C355    1.388   .     S
C350   H351    0.951   .     S
C350   C353    1.372   .     S
N352   H360    0.986   .     S
N352   N502    1.389   .     S
C353   H354    0.950   .     S
C355   H356    0.950   .     S
C355   C357    1.369   .     S
C357   H358    0.950   .     S
C359   C494    1.554   .     S
O361   Co555   2.091   .     S
O361   C374    1.257   .     S
O362   C374    1.248   .     S
O362   Co557   2.142   1_565 S
N363   Co555   2.093   .     S
N363   C365    1.333   1_556 S
N363   C372    1.343   .     S
C364   N367    1.373   .     S
C364   C368    1.396   1_556 S
C364   C370    1.388   .     S
C365   N363    1.333   1_554 S
C365   H366    0.951   .     S
C365   C368    1.372   .     S
N367   H375    0.986   1_556 S
N367   N472    1.389   .     S
C368   C364    1.396   1_554 S
C368   H369    0.950   .     S
C370   H371    0.950   .     S
C370   C372    1.369   .     S
C372   H373    0.950   .     S
C374   C419    1.554   1_565 S
H375   N367    0.986   1_554 S
O376   Co556   2.091   .     S
O376   C389    1.257   .     S
O377   C389    1.248   1_556 S
O377   Co553   2.142   .     S
N378   Co556   2.093   .     S
N378   C380    1.333   .     S
N378   C387    1.343   .     S
C379   N382    1.373   .     S
C379   C383    1.396   .     S
C379   C385    1.388   .     S
C380   H381    0.951   .     S
C380   C383    1.372   .     S
N382   H390    0.986   .     S
N382   N487    1.389   1_455 S
C383   H384    0.950   .     S
C385   H386    0.950   .     S
C385   C387    1.369   .     S
C387   H388    0.950   .     S
C389   O377    1.248   1_554 S
C389   C434    1.554   .     S
O391   Co558   2.091   .     S
O391   C404    1.257   .     S
O392   C404    1.248   .     S
O392   Co554   2.142   1_655 S
N393   Co558   2.093   .     S
N393   C395    1.333   .     S
N393   C402    1.343   .     S
C394   N397    1.373   .     S
C394   C398    1.396   .     S
C394   C400    1.388   .     S
C395   H396    0.951   .     S
C395   C398    1.372   .     S
N397   H405    0.986   .     S
N397   N457    1.389   .     S
C398   H399    0.950   .     S
C400   H401    0.950   .     S
C400   C402    1.369   .     S
C402   H403    0.950   .     S
C404   C449    1.554   .     S
O406   Co557   2.091   .     S
O406   C419    1.257   .     S
O407   C419    1.248   .     S
O407   Co555   2.142   1_545 S
N408   Co557   2.093   .     S
N408   C410    1.333   .     S
N408   C417    1.343   .     S
C409   N412    1.373   .     S
C409   C413    1.396   .     S
C409   C415    1.388   .     S
C410   H411    0.951   .     S
C410   C413    1.372   .     S
N412   H420    0.986   .     S
C413   H414    0.950   .     S
C415   H416    0.950   .     S
C415   C417    1.369   .     S
C417   H418    0.950   .     S
C419   C374    1.554   1_545 S
O421   Co553   2.091   1_554 S
O421   C434    1.257   .     S
O422   C434    1.248   .     S
O422   Co556   2.142   .     S
N423   Co553   2.093   .     S
N423   C425    1.333   .     S
N423   C432    1.343   .     S
C424   N427    1.373   .     S
C424   C428    1.396   .     S
C424   C430    1.388   .     S
C425   H426    0.951   .     S
C425   C428    1.372   .     S
N427   H435    0.986   .     S
C428   H429    0.950   .     S
C430   H431    0.950   1_556 S
C430   C432    1.369   .     S
H431   C430    0.950   1_554 S
C432   H433    0.950   1_556 S
H433   C432    0.950   1_554 S
O436   Co554   2.091   1_655 S
O436   C449    1.257   .     S
O437   C449    1.248   .     S
O437   Co558   2.142   .     S
N438   Co554   2.093   1_655 S
N438   C440    1.333   .     S
N438   C447    1.343   .     S
C439   N442    1.373   .     S
C439   C443    1.396   .     S
C439   C445    1.388   .     S
C440   H441    0.951   .     S
C440   C443    1.372   .     S
N442   H450    0.986   .     S
C443   H444    0.950   .     S
C445   H446    0.950   .     S
C445   C447    1.369   .     S
C447   H448    0.950   .     S
O451   Co552   2.091   .     S
O451   C464    1.257   .     S
O452   C464    1.248   .     S
O452   Co553   2.142   .     S
N453   Co552   2.093   .     S
N453   C455    1.333   .     S
N453   C462    1.343   .     S
C454   N457    1.373   .     S
C454   C458    1.396   .     S
C454   C460    1.388   .     S
C455   H456    0.951   .     S
C455   C458    1.372   .     S
N457   H465    0.986   .     S
C458   H459    0.950   .     S
C460   H461    0.950   .     S
C460   C462    1.369   .     S
C462   H463    0.950   .     S
O466   Co550   2.091   1_554 S
O466   C479    1.257   .     S
O467   C479    1.248   .     S
O467   Co554   2.142   .     S
N468   Co550   2.093   .     S
N468   C470    1.333   .     S
N468   C477    1.343   .     S
C469   N472    1.373   .     S
C469   C473    1.396   .     S
C469   C475    1.388   .     S
C470   H471    0.951   .     S
C470   C473    1.372   .     S
N472   H480    0.986   .     S
C473   H474    0.950   .     S
C475   H476    0.950   1_556 S
C475   C477    1.369   .     S
H476   C475    0.950   1_554 S
C477   H478    0.950   1_556 S
H478   C477    0.950   1_554 S
O481   Co551   2.091   .     S
O481   C494    1.257   .     S
O482   C494    1.248   .     S
O482   Co557   2.142   .     S
N483   Co551   2.093   .     S
N483   C485    1.333   .     S
N483   C492    1.343   .     S
C484   N487    1.373   .     S
C484   C488    1.396   .     S
C484   C490    1.388   .     S
C485   H486    0.951   .     S
C485   C488    1.372   .     S
N487   H495    0.986   .     S
N487   N382    1.389   1_655 S
C488   H489    0.950   .     S
C490   H491    0.950   .     S
C490   C492    1.369   .     S
C492   H493    0.950   .     S
O496   Co558   2.091   .     S
O496   C509    1.257   .     S
O497   C509    1.248   .     S
O497   Co550   2.142   1_655 S
N498   Co558   2.093   .     S
N498   C500    1.333   .     S
N498   C507    1.343   .     S
C499   N502    1.373   .     S
C499   C503    1.396   .     S
C499   C505    1.388   .     S
C500   H501    0.951   .     S
C500   C503    1.372   .     S
N502   H510    0.986   .     S
C503   H504    0.950   .     S
C505   H506    0.950   .     S
C505   C507    1.369   .     S
C507   H508    0.950   .     S
C509   C284    1.554   1_655 S
O511   Co555   2.091   1_554 S
O511   C524    1.257   .     S
O512   C524    1.248   .     S
O512   Co551   2.142   1_565 S
N513   Co555   2.093   .     S
N513   C515    1.333   .     S
N513   C522    1.343   .     S
C514   N517    1.373   .     S
C514   C518    1.396   .     S
C514   C520    1.388   .     S
C515   H516    0.951   .     S
C515   C518    1.372   .     S
N517   H525    0.986   .     S
C518   H519    0.950   .     S
C520   H521    0.950   1_556 S
C520   C522    1.369   .     S
H521   C520    0.950   1_554 S
C522   H523    0.950   1_556 S
H523   C522    0.950   1_554 S
O526   Co556   2.091   .     S
O526   C539    1.257   .     S
O527   C539    1.248   .     S
O527   Co552   2.142   .     S
N528   Co556   2.093   .     S
N528   C530    1.333   .     S
N528   C537    1.343   .     S
C529   N532    1.373   .     S
C529   C533    1.396   .     S
C529   C535    1.388   .     S
C530   H531    0.951   .     S
C530   C533    1.372   .     S
N532   H540    0.986   .     S
N532   N337    1.389   1_545 S
C533   H534    0.950   .     S
C535   H536    0.950   .     S
C535   C537    1.369   .     S
C537   H538    0.950   .     S
Co541  O211    2.091   1_554 S
Co541  O227    2.142   1_655 S
Co542  O166    2.091   1_554 S
Co543  O92     2.142   1_565 S
Co544  O256    2.091   1_554 S
Co544  O137    2.142   1_545 S
Co546  O76     2.091   1_455 S
Co546  N78     2.093   1_455 S
Co546  O212    2.142   1_455 S
Co548  O196    2.091   1_545 S
Co548  N198    2.093   1_545 S
Co548  O62     2.142   1_545 S
Co549  O2      2.142   1_455 S
Co550  O466    2.091   1_556 S
Co550  O497    2.142   1_455 S
Co551  O286    2.091   1_545 S
Co551  N288    2.093   1_545 S
Co551  O512    2.142   1_545 S
Co553  O421    2.091   1_556 S
Co554  O436    2.091   1_455 S
Co554  N438    2.093   1_455 S
Co554  O392    2.142   1_455 S
Co555  O511    2.091   1_556 S
Co555  O407    2.142   1_565 S
Co557  O362    2.142   1_545 S
Co558  O272    2.142   1_655 S
