data_HINTIK_FSR
_audit_creation_date              2024-06-11
_audit_creation_method            'Materials Studio'
_symmetry_space_group_name_H-M    'P1'
_symmetry_Int_Tables_number       1
_symmetry_cell_setting            triclinic
loop_
_symmetry_equiv_pos_as_xyz
  x,y,z
_cell_length_a                    21.4812
_cell_length_b                    21.4812
_cell_length_c                    13.2630
_cell_angle_alpha                 90.0000
_cell_angle_beta                  90.0000
_cell_angle_gamma                 90.0000
loop_
_atom_site_label
_atom_site_type_symbol
_atom_site_fract_x
_atom_site_fract_y
_atom_site_fract_z
_atom_site_U_iso_or_equiv
_atom_site_adp_type
_atom_site_occupancy
Cu1    Cu    0.13628   0.37524   0.16160   0.02537  Uani   1.00
O2     O     0.16309   0.22650   0.33335   0.02667  Uani   1.00
O3     O     0.12289   0.29345   0.22170   0.03260  Uani   1.00
O4     O     0.26106   0.22542   0.44630   0.03493  Uani   1.00
H5     H     0.22780   0.22640   0.41600   0.05200  Uiso   1.00
O6     O     0.33945   0.29046   0.47760   0.03497  Uani   1.00
N7     N     0.29127   0.38156   0.35410   0.02067  Uani   1.00
O8     O     0.10278   0.34010   0.03330   0.04553  Uani   1.00
H9     H     0.13170   0.32100   0.00150   0.06800  Uiso   1.00
H10    H     0.08910   0.36980   0.99650   0.06800  Uiso   1.00
N11    N     0.20354   0.38246   0.26430   0.02127  Uani   1.00
C12    C     0.25398   0.41549   0.29250   0.02063  Uani   1.00
C13    C     0.26220   0.32560   0.36740   0.02333  Uani   1.00
C14    C     0.20865   0.32642   0.31170   0.02020  Uani   1.00
C15    C     0.16230   0.27820   0.28990   0.02600  Uani   1.00
C16    C     0.29050   0.27920   0.43420   0.02800  Uani   1.00
C17    C     0.26697   0.48099   0.27020   0.02300  Uani   1.00
C18    C     0.32780   0.50190   0.26170   0.02767  Uani   1.00
H19    H     0.36050   0.47360   0.26340   0.03300  Uiso   1.00
C20    C     0.21880   0.52423   0.26570   0.02367  Uani   1.00
H21    H     0.17790   0.51050   0.27210   0.02800  Uiso   1.00
C22    C     0.33990   0.56490   0.25080   0.03500  Uani   1.00
H23    H     0.38080   0.57870   0.24590   0.04200  Uiso   1.00
C24    C     0.23010   0.58740   0.25210   0.03167  Uani   1.00
C25    C     0.29110   0.60820   0.24710   0.03700  Uani   1.00
C26    C     0.17610   0.63220   0.24530   0.04533  Uani   1.00
H27    H     0.17640   0.65230   0.18060   0.06800  Uiso   1.00
H28    H     0.17980   0.66300   0.29740   0.06800  Uiso   1.00
H29    H     0.13770   0.60980   0.25360   0.06800  Uiso   1.00
C30    C     0.30600   0.67710   0.23540   0.06433  Uani   1.00
H31    H     0.35030   0.68260   0.23240   0.09700  Uiso   1.00
H32    H     0.28960   0.69960   0.29210   0.09700  Uiso   1.00
H33    H     0.28750   0.69250   0.17450   0.09700  Uiso   1.00
Cu34   Cu    0.63628  -0.12476   0.66160   0.02537  Uani   1.00
O35    O     0.66309  -0.27350   0.83335   0.02667  Uani   1.00
O36    O     0.62289  -0.20655   0.72170   0.03260  Uani   1.00
O37    O     0.76106  -0.27458   0.94630   0.03493  Uani   1.00
H38    H     0.72780  -0.27360   0.91600   0.05200  Uiso   1.00
O39    O     0.83945  -0.20954   0.97760   0.03497  Uani   1.00
N40    N     0.79127  -0.11844   0.85410   0.02067  Uani   1.00
O41    O     0.60278  -0.15990   0.53330   0.04553  Uani   1.00
H42    H     0.63170  -0.17900   0.50150   0.06800  Uiso   1.00
H43    H     0.58910  -0.13020   0.49650   0.06800  Uiso   1.00
N44    N     0.70354  -0.11754   0.76430   0.02127  Uani   1.00
C45    C     0.75398  -0.08451   0.79250   0.02063  Uani   1.00
C46    C     0.76220  -0.17440   0.86740   0.02333  Uani   1.00
C47    C     0.70865  -0.17358   0.81170   0.02020  Uani   1.00
C48    C     0.66230  -0.22180   0.78990   0.02600  Uani   1.00
C49    C     0.79050  -0.22080   0.93420   0.02800  Uani   1.00
C50    C     0.76697  -0.01901   0.77020   0.02300  Uani   1.00
C51    C     0.82780   0.00190   0.76170   0.02767  Uani   1.00
H52    H     0.86050  -0.02640   0.76340   0.03300  Uiso   1.00
C53    C     0.71880   0.02423   0.76570   0.02367  Uani   1.00
H54    H     0.67790   0.01050   0.77210   0.02800  Uiso   1.00
C55    C     0.83990   0.06490   0.75080   0.03500  Uani   1.00
H56    H     0.88080   0.07870   0.74590   0.04200  Uiso   1.00
C57    C     0.73010   0.08740   0.75210   0.03167  Uani   1.00
C58    C     0.79110   0.10820   0.74710   0.03700  Uani   1.00
C59    C     0.67610   0.13220   0.74530   0.04533  Uani   1.00
H60    H     0.67640   0.15230   0.68060   0.06800  Uiso   1.00
H61    H     0.67980   0.16300   0.79740   0.06800  Uiso   1.00
H62    H     0.63770   0.10980   0.75360   0.06800  Uiso   1.00
C63    C     0.80600   0.17710   0.73540   0.06433  Uani   1.00
H64    H     0.85030   0.18260   0.73240   0.09700  Uiso   1.00
H65    H     0.78960   0.19960   0.79210   0.09700  Uiso   1.00
H66    H     0.78750   0.19250   0.67450   0.09700  Uiso   1.00
Cu67   Cu    0.36372   0.62476   0.66160   0.02537  Uani   1.00
O68    O     0.33691   0.77350   0.83335   0.02667  Uani   1.00
O69    O     0.37711   0.70655   0.72170   0.03260  Uani   1.00
O70    O     0.23894   0.77458   0.94630   0.03493  Uani   1.00
H71    H     0.27220   0.77360   0.91600   0.05200  Uiso   1.00
O72    O     0.16055   0.70954   0.97760   0.03497  Uani   1.00
N73    N     0.20873   0.61844   0.85410   0.02067  Uani   1.00
O74    O     0.39722   0.65990   0.53330   0.04553  Uani   1.00
H75    H     0.36830   0.67900   0.50150   0.06800  Uiso   1.00
H76    H     0.41090   0.63020   0.49650   0.06800  Uiso   1.00
N77    N     0.29646   0.61754   0.76430   0.02127  Uani   1.00
C78    C     0.24602   0.58451   0.79250   0.02063  Uani   1.00
C79    C     0.23780   0.67440   0.86740   0.02333  Uani   1.00
C80    C     0.29135   0.67358   0.81170   0.02020  Uani   1.00
C81    C     0.33770   0.72180   0.78990   0.02600  Uani   1.00
C82    C     0.20950   0.72080   0.93420   0.02800  Uani   1.00
C83    C     0.23303   0.51901   0.77020   0.02300  Uani   1.00
C84    C     0.17220   0.49810   0.76170   0.02767  Uani   1.00
H85    H     0.13950   0.52640   0.76340   0.03300  Uiso   1.00
C86    C     0.28120   0.47577   0.76570   0.02367  Uani   1.00
H87    H     0.32210   0.48950   0.77210   0.02800  Uiso   1.00
C88    C     0.16010   0.43510   0.75080   0.03500  Uani   1.00
H89    H     0.11920   0.42130   0.74590   0.04200  Uiso   1.00
C90    C     0.26990   0.41260   0.75210   0.03167  Uani   1.00
C91    C     0.20890   0.39180   0.74710   0.03700  Uani   1.00
C92    C     0.32390   0.36780   0.74530   0.04533  Uani   1.00
H93    H     0.32360   0.34770   0.68060   0.06800  Uiso   1.00
H94    H     0.32020   0.33700   0.79740   0.06800  Uiso   1.00
H95    H     0.36230   0.39020   0.75360   0.06800  Uiso   1.00
C96    C     0.19400   0.32290   0.73540   0.06433  Uani   1.00
H97    H     0.14970   0.31740   0.73240   0.09700  Uiso   1.00
H98    H     0.21040   0.30040   0.79210   0.09700  Uiso   1.00
H99    H     0.21250   0.30750   0.67450   0.09700  Uiso   1.00
Cu100  Cu    0.86372   0.12476   0.16160   0.02537  Uani   1.00
O101   O     0.83691   0.27350   0.33335   0.02667  Uani   1.00
O102   O     0.87711   0.20655   0.22170   0.03260  Uani   1.00
O103   O     0.73894   0.27458   0.44630   0.03493  Uani   1.00
H104   H     0.77220   0.27360   0.41600   0.05200  Uiso   1.00
O105   O     0.66055   0.20954   0.47760   0.03497  Uani   1.00
N106   N     0.70873   0.11844   0.35410   0.02067  Uani   1.00
O107   O     0.89722   0.15990   0.03330   0.04553  Uani   1.00
H108   H     0.86830   0.17900   0.00150   0.06800  Uiso   1.00
H109   H     0.91090   0.13020   0.99650   0.06800  Uiso   1.00
N110   N     0.79646   0.11754   0.26430   0.02127  Uani   1.00
C111   C     0.74602   0.08451   0.29250   0.02063  Uani   1.00
C112   C     0.73780   0.17440   0.36740   0.02333  Uani   1.00
C113   C     0.79135   0.17358   0.31170   0.02020  Uani   1.00
C114   C     0.83770   0.22180   0.28990   0.02600  Uani   1.00
C115   C     0.70950   0.22080   0.43420   0.02800  Uani   1.00
C116   C     0.73303   0.01901   0.27020   0.02300  Uani   1.00
C117   C     0.67220  -0.00190   0.26170   0.02767  Uani   1.00
H118   H     0.63950   0.02640   0.26340   0.03300  Uiso   1.00
C119   C     0.78120  -0.02423   0.26570   0.02367  Uani   1.00
H120   H     0.82210  -0.01050   0.27210   0.02800  Uiso   1.00
C121   C     0.66010  -0.06490   0.25080   0.03500  Uani   1.00
H122   H     0.61920  -0.07870   0.24590   0.04200  Uiso   1.00
C123   C     0.76990  -0.08740   0.25210   0.03167  Uani   1.00
C124   C     0.70890  -0.10820   0.24710   0.03700  Uani   1.00
C125   C     0.82390  -0.13220   0.24530   0.04533  Uani   1.00
H126   H     0.82360  -0.15230   0.18060   0.06800  Uiso   1.00
H127   H     0.82020  -0.16300   0.29740   0.06800  Uiso   1.00
H128   H     0.86230  -0.10980   0.25360   0.06800  Uiso   1.00
C129   C     0.69400  -0.17710   0.23540   0.06433  Uani   1.00
H130   H     0.64970  -0.18260   0.23240   0.09700  Uiso   1.00
H131   H     0.71040  -0.19960   0.29210   0.09700  Uiso   1.00
H132   H     0.71250  -0.19250   0.17450   0.09700  Uiso   1.00
Cu133  Cu    0.37476   0.38628   0.41160   0.02537  Uani   1.00
O134   O     0.52350   0.41309   0.58335   0.02667  Uani   1.00
O135   O     0.45655   0.37289   0.47170   0.03260  Uani   1.00
O136   O     0.52458   0.51106   0.69630   0.03493  Uani   1.00
H137   H     0.52360   0.47780   0.66600   0.05200  Uiso   1.00
O138   O     0.45954   0.58945   0.72760   0.03497  Uani   1.00
N139   N     0.36844   0.54127   0.60410   0.02067  Uani   1.00
O140   O     0.40990   0.35278   0.28330   0.04553  Uani   1.00
H141   H     0.42900   0.38170   0.25150   0.06800  Uiso   1.00
H142   H     0.38020   0.33910   0.24650   0.06800  Uiso   1.00
N143   N     0.36754   0.45354   0.51430   0.02127  Uani   1.00
C144   C     0.33451   0.50398   0.54250   0.02063  Uani   1.00
C145   C     0.42440   0.51220   0.61740   0.02333  Uani   1.00
C146   C     0.42358   0.45865   0.56170   0.02020  Uani   1.00
C147   C     0.47180   0.41230   0.53990   0.02600  Uani   1.00
C148   C     0.47080   0.54050   0.68420   0.02800  Uani   1.00
C149   C     0.26901   0.51697   0.52020   0.02300  Uani   1.00
C150   C     0.24810   0.57780   0.51170   0.02767  Uani   1.00
H151   H     0.27640   0.61050   0.51340   0.03300  Uiso   1.00
C152   C     0.22577   0.46880   0.51570   0.02367  Uani   1.00
H153   H     0.23950   0.42790   0.52210   0.02800  Uiso   1.00
C154   C     0.18510   0.58990   0.50080   0.03500  Uani   1.00
H155   H     0.17130   0.63080   0.49590   0.04200  Uiso   1.00
C156   C     0.16260   0.48010   0.50210   0.03167  Uani   1.00
C157   C     0.14180   0.54110   0.49710   0.03700  Uani   1.00
C158   C     0.11780   0.42610   0.49530   0.04533  Uani   1.00
H159   H     0.09770   0.42640   0.43060   0.06800  Uiso   1.00
H160   H     0.08700   0.42980   0.54740   0.06800  Uiso   1.00
H161   H     0.14020   0.38770   0.50360   0.06800  Uiso   1.00
C162   C     0.07290   0.55600   0.48540   0.06433  Uani   1.00
H163   H     0.06740   0.60030   0.48240   0.09700  Uiso   1.00
H164   H     0.05040   0.53960   0.54210   0.09700  Uiso   1.00
H165   H     0.05750   0.53750   0.42450   0.09700  Uiso   1.00
Cu166  Cu    0.87476  -0.11372   0.91160   0.02537  Uani   1.00
O167   O     1.02350  -0.08691   0.08335   0.02667  Uani   1.00
O168   O     0.95655  -0.12711   0.97170   0.03260  Uani   1.00
O169   O     1.02458   0.01106   0.19630   0.03493  Uani   1.00
H170   H     1.02360  -0.02220   0.16600   0.05200  Uiso   1.00
O171   O     0.95954   0.08945   0.22760   0.03497  Uani   1.00
N172   N     0.86844   0.04127   0.10410   0.02067  Uani   1.00
O173   O     0.90990  -0.14722   0.78330   0.04553  Uani   1.00
H174   H     0.92900  -0.11830   0.75150   0.06800  Uiso   1.00
H175   H     0.88020  -0.16090   0.74650   0.06800  Uiso   1.00
N176   N     0.86754  -0.04646   0.01430   0.02127  Uani   1.00
C177   C     0.83451   0.00398   0.04250   0.02063  Uani   1.00
C178   C     0.92440   0.01220   0.11740   0.02333  Uani   1.00
C179   C     0.92358  -0.04135   0.06170   0.02020  Uani   1.00
C180   C     0.97180  -0.08770   0.03990   0.02600  Uani   1.00
C181   C     0.97080   0.04050   0.18420   0.02800  Uani   1.00
C182   C     0.76901   0.01697   0.02020   0.02300  Uani   1.00
C183   C     0.74810   0.07780   0.01170   0.02767  Uani   1.00
H184   H     0.77640   0.11050   0.01340   0.03300  Uiso   1.00
C185   C     0.72577  -0.03120   0.01570   0.02367  Uani   1.00
H186   H     0.73950  -0.07210   0.02210   0.02800  Uiso   1.00
C187   C     0.68510   0.08990   0.00080   0.03500  Uani   1.00
H188   H     0.67130   0.13080   0.99590   0.04200  Uiso   1.00
C189   C     0.66260  -0.01990   0.00210   0.03167  Uani   1.00
C190   C     0.64180   0.04110   0.99710   0.03700  Uani   1.00
C191   C     0.61780  -0.07390   0.99530   0.04533  Uani   1.00
H192   H     0.59770  -0.07360   0.93060   0.06800  Uiso   1.00
H193   H     0.58700  -0.07020   0.04740   0.06800  Uiso   1.00
H194   H     0.64020  -0.11230   0.00360   0.06800  Uiso   1.00
C195   C     0.57290   0.05600   0.98540   0.06433  Uani   1.00
H196   H     0.56740   0.10030   0.98240   0.09700  Uiso   1.00
H197   H     0.55040   0.03960   0.04210   0.09700  Uiso   1.00
H198   H     0.55750   0.03750   0.92450   0.09700  Uiso   1.00
Cu199  Cu    0.12524   0.61372   0.91160   0.02537  Uani   1.00
O200   O    -0.02350   0.58691   0.08335   0.02667  Uani   1.00
O201   O     0.04345   0.62711   0.97170   0.03260  Uani   1.00
O202   O    -0.02458   0.48894   0.19630   0.03493  Uani   1.00
H203   H    -0.02360   0.52220   0.16600   0.05200  Uiso   1.00
O204   O     0.04046   0.41055   0.22760   0.03497  Uani   1.00
N205   N     0.13156   0.45873   0.10410   0.02067  Uani   1.00
O206   O     0.09010   0.64722   0.78330   0.04553  Uani   1.00
H207   H     0.07100   0.61830   0.75150   0.06800  Uiso   1.00
H208   H     0.11980   0.66090   0.74650   0.06800  Uiso   1.00
N209   N     0.13246   0.54646   0.01430   0.02127  Uani   1.00
C210   C     0.16549   0.49602   0.04250   0.02063  Uani   1.00
C211   C     0.07560   0.48780   0.11740   0.02333  Uani   1.00
C212   C     0.07642   0.54135   0.06170   0.02020  Uani   1.00
C213   C     0.02820   0.58770   0.03990   0.02600  Uani   1.00
C214   C     0.02920   0.45950   0.18420   0.02800  Uani   1.00
C215   C     0.23099   0.48303   0.02020   0.02300  Uani   1.00
C216   C     0.25190   0.42220   0.01170   0.02767  Uani   1.00
H217   H     0.22360   0.38950   0.01340   0.03300  Uiso   1.00
C218   C     0.27423   0.53120   0.01570   0.02367  Uani   1.00
H219   H     0.26050   0.57210   0.02210   0.02800  Uiso   1.00
C220   C     0.31490   0.41010   0.00080   0.03500  Uani   1.00
H221   H     0.32870   0.36920   0.99590   0.04200  Uiso   1.00
C222   C     0.33740   0.51990   0.00210   0.03167  Uani   1.00
C223   C     0.35820   0.45890   0.99710   0.03700  Uani   1.00
C224   C     0.38220   0.57390   0.99530   0.04533  Uani   1.00
H225   H     0.40230   0.57360   0.93060   0.06800  Uiso   1.00
H226   H     0.41300   0.57020   0.04740   0.06800  Uiso   1.00
H227   H     0.35980   0.61230   0.00360   0.06800  Uiso   1.00
C228   C     0.42710   0.44400   0.98540   0.06433  Uani   1.00
H229   H     0.43260   0.39970   0.98240   0.09700  Uiso   1.00
H230   H     0.44960   0.46040   0.04210   0.09700  Uiso   1.00
H231   H     0.44250   0.46250   0.92450   0.09700  Uiso   1.00
Cu232  Cu    0.62524   0.11372   0.41160   0.02537  Uani   1.00
O233   O     0.47650   0.08691   0.58335   0.02667  Uani   1.00
O234   O     0.54345   0.12711   0.47170   0.03260  Uani   1.00
O235   O     0.47542  -0.01106   0.69630   0.03493  Uani   1.00
H236   H     0.47640   0.02220   0.66600   0.05200  Uiso   1.00
O237   O     0.54046  -0.08945   0.72760   0.03497  Uani   1.00
N238   N     0.63156  -0.04127   0.60410   0.02067  Uani   1.00
O239   O     0.59010   0.14722   0.28330   0.04553  Uani   1.00
H240   H     0.57100   0.11830   0.25150   0.06800  Uiso   1.00
H241   H     0.61980   0.16090   0.24650   0.06800  Uiso   1.00
N242   N     0.63246   0.04646   0.51430   0.02127  Uani   1.00
C243   C     0.66549  -0.00398   0.54250   0.02063  Uani   1.00
C244   C     0.57560  -0.01220   0.61740   0.02333  Uani   1.00
C245   C     0.57642   0.04135   0.56170   0.02020  Uani   1.00
C246   C     0.52820   0.08770   0.53990   0.02600  Uani   1.00
C247   C     0.52920  -0.04050   0.68420   0.02800  Uani   1.00
C248   C     0.73099  -0.01697   0.52020   0.02300  Uani   1.00
C249   C     0.75190  -0.07780   0.51170   0.02767  Uani   1.00
H250   H     0.72360  -0.11050   0.51340   0.03300  Uiso   1.00
C251   C     0.77423   0.03120   0.51570   0.02367  Uani   1.00
H252   H     0.76050   0.07210   0.52210   0.02800  Uiso   1.00
C253   C     0.81490  -0.08990   0.50080   0.03500  Uani   1.00
H254   H     0.82870  -0.13080   0.49590   0.04200  Uiso   1.00
C255   C     0.83740   0.01990   0.50210   0.03167  Uani   1.00
C256   C     0.85820  -0.04110   0.49710   0.03700  Uani   1.00
C257   C     0.88220   0.07390   0.49530   0.04533  Uani   1.00
H258   H     0.90230   0.07360   0.43060   0.06800  Uiso   1.00
H259   H     0.91300   0.07020   0.54740   0.06800  Uiso   1.00
H260   H     0.85980   0.11230   0.50360   0.06800  Uiso   1.00
C261   C     0.92710  -0.05600   0.48540   0.06433  Uani   1.00
H262   H     0.93260  -0.10030   0.48240   0.09700  Uiso   1.00
H263   H     0.94960  -0.03960   0.54210   0.09700  Uiso   1.00
H264   H     0.94250  -0.03750   0.42450   0.09700  Uiso   1.00
Cu265  Cu    0.86372   0.62476   0.83840   0.02537  Uani   1.00
O266   O     0.83691   0.77350   0.66665   0.02667  Uani   1.00
O267   O     0.87711   0.70655   0.77830   0.03260  Uani   1.00
O268   O     0.73894   0.77458   0.55370   0.03493  Uani   1.00
H269   H     0.77220   0.77360   0.58400   0.05200  Uiso   1.00
O270   O     0.66055   0.70954   0.52240   0.03497  Uani   1.00
N271   N     0.70873   0.61844   0.64590   0.02067  Uani   1.00
O272   O     0.89722   0.65990   0.96670   0.04553  Uani   1.00
H273   H     0.86830   0.67900   0.99850   0.06800  Uiso   1.00
H274   H     0.91090   0.63020   0.00350   0.06800  Uiso   1.00
N275   N     0.79646   0.61754   0.73570   0.02127  Uani   1.00
C276   C     0.74602   0.58451   0.70750   0.02063  Uani   1.00
C277   C     0.73780   0.67440   0.63260   0.02333  Uani   1.00
C278   C     0.79135   0.67358   0.68830   0.02020  Uani   1.00
C279   C     0.83770   0.72180   0.71010   0.02600  Uani   1.00
C280   C     0.70950   0.72080   0.56580   0.02800  Uani   1.00
C281   C     0.73303   0.51901   0.72980   0.02300  Uani   1.00
C282   C     0.67220   0.49810   0.73830   0.02767  Uani   1.00
H283   H     0.63950   0.52640   0.73660   0.03300  Uiso   1.00
C284   C     0.78120   0.47577   0.73430   0.02367  Uani   1.00
H285   H     0.82210   0.48950   0.72790   0.02800  Uiso   1.00
C286   C     0.66010   0.43510   0.74920   0.03500  Uani   1.00
H287   H     0.61920   0.42130   0.75410   0.04200  Uiso   1.00
C288   C     0.76990   0.41260   0.74790   0.03167  Uani   1.00
C289   C     0.70890   0.39180   0.75290   0.03700  Uani   1.00
C290   C     0.82390   0.36780   0.75470   0.04533  Uani   1.00
H291   H     0.82360   0.34770   0.81940   0.06800  Uiso   1.00
H292   H     0.82020   0.33700   0.70260   0.06800  Uiso   1.00
H293   H     0.86230   0.39020   0.74640   0.06800  Uiso   1.00
C294   C     0.69400   0.32290   0.76460   0.06433  Uani   1.00
H295   H     0.64970   0.31740   0.76760   0.09700  Uiso   1.00
H296   H     0.71040   0.30040   0.70790   0.09700  Uiso   1.00
H297   H     0.71250   0.30750   0.82550   0.09700  Uiso   1.00
Cu298  Cu    0.36372   0.12476   0.33840   0.02537  Uani   1.00
O299   O     0.33691   0.27350   0.16665   0.02667  Uani   1.00
O300   O     0.37711   0.20655   0.27830   0.03260  Uani   1.00
O301   O     0.23894   0.27458   0.05370   0.03493  Uani   1.00
H302   H     0.27220   0.27360   0.08400   0.05200  Uiso   1.00
O303   O     0.16055   0.20954   0.02240   0.03497  Uani   1.00
N304   N     0.20873   0.11844   0.14590   0.02067  Uani   1.00
O305   O     0.39722   0.15990   0.46670   0.04553  Uani   1.00
H306   H     0.36830   0.17900   0.49850   0.06800  Uiso   1.00
H307   H     0.41090   0.13020   0.50350   0.06800  Uiso   1.00
N308   N     0.29646   0.11754   0.23570   0.02127  Uani   1.00
C309   C     0.24602   0.08451   0.20750   0.02063  Uani   1.00
C310   C     0.23780   0.17440   0.13260   0.02333  Uani   1.00
C311   C     0.29135   0.17358   0.18830   0.02020  Uani   1.00
C312   C     0.33770   0.22180   0.21010   0.02600  Uani   1.00
C313   C     0.20950   0.22080   0.06580   0.02800  Uani   1.00
C314   C     0.23303   0.01901   0.22980   0.02300  Uani   1.00
C315   C     0.17220  -0.00190   0.23830   0.02767  Uani   1.00
H316   H     0.13950   0.02640   0.23660   0.03300  Uiso   1.00
C317   C     0.28120  -0.02423   0.23430   0.02367  Uani   1.00
H318   H     0.32210  -0.01050   0.22790   0.02800  Uiso   1.00
C319   C     0.16010  -0.06490   0.24920   0.03500  Uani   1.00
H320   H     0.11920  -0.07870   0.25410   0.04200  Uiso   1.00
C321   C     0.26990  -0.08740   0.24790   0.03167  Uani   1.00
C322   C     0.20890  -0.10820   0.25290   0.03700  Uani   1.00
C323   C     0.32390  -0.13220   0.25470   0.04533  Uani   1.00
H324   H     0.32360  -0.15230   0.31940   0.06800  Uiso   1.00
H325   H     0.32020  -0.16300   0.20260   0.06800  Uiso   1.00
H326   H     0.36230  -0.10980   0.24640   0.06800  Uiso   1.00
C327   C     0.19400  -0.17710   0.26460   0.06433  Uani   1.00
H328   H     0.14970  -0.18260   0.26760   0.09700  Uiso   1.00
H329   H     0.21040  -0.19960   0.20790   0.09700  Uiso   1.00
H330   H     0.21250  -0.19250   0.32550   0.09700  Uiso   1.00
Cu331  Cu    0.63628   0.37524   0.33840   0.02537  Uani   1.00
O332   O     0.66309   0.22650   0.16665   0.02667  Uani   1.00
O333   O     0.62289   0.29345   0.27830   0.03260  Uani   1.00
O334   O     0.76106   0.22542   0.05370   0.03493  Uani   1.00
H335   H     0.72780   0.22640   0.08400   0.05200  Uiso   1.00
O336   O     0.83945   0.29046   0.02240   0.03497  Uani   1.00
N337   N     0.79127   0.38156   0.14590   0.02067  Uani   1.00
O338   O     0.60278   0.34010   0.46670   0.04553  Uani   1.00
H339   H     0.63170   0.32100   0.49850   0.06800  Uiso   1.00
H340   H     0.58910   0.36980   0.50350   0.06800  Uiso   1.00
N341   N     0.70354   0.38246   0.23570   0.02127  Uani   1.00
C342   C     0.75398   0.41549   0.20750   0.02063  Uani   1.00
C343   C     0.76220   0.32560   0.13260   0.02333  Uani   1.00
C344   C     0.70865   0.32642   0.18830   0.02020  Uani   1.00
C345   C     0.66230   0.27820   0.21010   0.02600  Uani   1.00
C346   C     0.79050   0.27920   0.06580   0.02800  Uani   1.00
C347   C     0.76697   0.48099   0.22980   0.02300  Uani   1.00
C348   C     0.82780   0.50190   0.23830   0.02767  Uani   1.00
H349   H     0.86050   0.47360   0.23660   0.03300  Uiso   1.00
C350   C     0.71880   0.52423   0.23430   0.02367  Uani   1.00
H351   H     0.67790   0.51050   0.22790   0.02800  Uiso   1.00
C352   C     0.83990   0.56490   0.24920   0.03500  Uani   1.00
H353   H     0.88080   0.57870   0.25410   0.04200  Uiso   1.00
C354   C     0.73010   0.58740   0.24790   0.03167  Uani   1.00
C355   C     0.79110   0.60820   0.25290   0.03700  Uani   1.00
C356   C     0.67610   0.63220   0.25470   0.04533  Uani   1.00
H357   H     0.67640   0.65230   0.31940   0.06800  Uiso   1.00
H358   H     0.67980   0.66300   0.20260   0.06800  Uiso   1.00
H359   H     0.63770   0.60980   0.24640   0.06800  Uiso   1.00
C360   C     0.80600   0.67710   0.26460   0.06433  Uani   1.00
H361   H     0.85030   0.68260   0.26760   0.09700  Uiso   1.00
H362   H     0.78960   0.69960   0.20790   0.09700  Uiso   1.00
H363   H     0.78750   0.69250   0.32550   0.09700  Uiso   1.00
Cu364  Cu    0.13628  -0.12476   0.83840   0.02537  Uani   1.00
O365   O     0.16309  -0.27350   0.66665   0.02667  Uani   1.00
O366   O     0.12289  -0.20655   0.77830   0.03260  Uani   1.00
O367   O     0.26106  -0.27458   0.55370   0.03493  Uani   1.00
H368   H     0.22780  -0.27360   0.58400   0.05200  Uiso   1.00
O369   O     0.33945  -0.20954   0.52240   0.03497  Uani   1.00
N370   N     0.29127  -0.11844   0.64590   0.02067  Uani   1.00
O371   O     0.10278  -0.15990   0.96670   0.04553  Uani   1.00
H372   H     0.13170  -0.17900   0.99850   0.06800  Uiso   1.00
H373   H     0.08910  -0.13020   0.00350   0.06800  Uiso   1.00
N374   N     0.20354  -0.11754   0.73570   0.02127  Uani   1.00
C375   C     0.25398  -0.08451   0.70750   0.02063  Uani   1.00
C376   C     0.26220  -0.17440   0.63260   0.02333  Uani   1.00
C377   C     0.20865  -0.17358   0.68830   0.02020  Uani   1.00
C378   C     0.16230  -0.22180   0.71010   0.02600  Uani   1.00
C379   C     0.29050  -0.22080   0.56580   0.02800  Uani   1.00
C380   C     0.26697  -0.01901   0.72980   0.02300  Uani   1.00
C381   C     0.32780   0.00190   0.73830   0.02767  Uani   1.00
H382   H     0.36050  -0.02640   0.73660   0.03300  Uiso   1.00
C383   C     0.21880   0.02423   0.73430   0.02367  Uani   1.00
H384   H     0.17790   0.01050   0.72790   0.02800  Uiso   1.00
C385   C     0.33990   0.06490   0.74920   0.03500  Uani   1.00
H386   H     0.38080   0.07870   0.75410   0.04200  Uiso   1.00
C387   C     0.23010   0.08740   0.74790   0.03167  Uani   1.00
C388   C     0.29110   0.10820   0.75290   0.03700  Uani   1.00
C389   C     0.17610   0.13220   0.75470   0.04533  Uani   1.00
H390   H     0.17640   0.15230   0.81940   0.06800  Uiso   1.00
H391   H     0.17980   0.16300   0.70260   0.06800  Uiso   1.00
H392   H     0.13770   0.10980   0.74640   0.06800  Uiso   1.00
C393   C     0.30600   0.17710   0.76460   0.06433  Uani   1.00
H394   H     0.35030   0.18260   0.76760   0.09700  Uiso   1.00
H395   H     0.28960   0.19960   0.70790   0.09700  Uiso   1.00
H396   H     0.28750   0.19250   0.82550   0.09700  Uiso   1.00
Cu397  Cu    0.62524   0.61372   0.58840   0.02537  Uani   1.00
O398   O     0.47650   0.58691   0.41665   0.02667  Uani   1.00
O399   O     0.54345   0.62711   0.52830   0.03260  Uani   1.00
O400   O     0.47542   0.48894   0.30370   0.03493  Uani   1.00
H401   H     0.47640   0.52220   0.33400   0.05200  Uiso   1.00
O402   O     0.54046   0.41055   0.27240   0.03497  Uani   1.00
N403   N     0.63156   0.45873   0.39590   0.02067  Uani   1.00
O404   O     0.59010   0.64722   0.71670   0.04553  Uani   1.00
H405   H     0.57100   0.61830   0.74850   0.06800  Uiso   1.00
H406   H     0.61980   0.66090   0.75350   0.06800  Uiso   1.00
N407   N     0.63246   0.54646   0.48570   0.02127  Uani   1.00
C408   C     0.66549   0.49602   0.45750   0.02063  Uani   1.00
C409   C     0.57560   0.48780   0.38260   0.02333  Uani   1.00
C410   C     0.57642   0.54135   0.43830   0.02020  Uani   1.00
C411   C     0.52820   0.58770   0.46010   0.02600  Uani   1.00
C412   C     0.52920   0.45950   0.31580   0.02800  Uani   1.00
C413   C     0.73099   0.48303   0.47980   0.02300  Uani   1.00
C414   C     0.75190   0.42220   0.48830   0.02767  Uani   1.00
H415   H     0.72360   0.38950   0.48660   0.03300  Uiso   1.00
C416   C     0.77423   0.53120   0.48430   0.02367  Uani   1.00
H417   H     0.76050   0.57210   0.47790   0.02800  Uiso   1.00
C418   C     0.81490   0.41010   0.49920   0.03500  Uani   1.00
H419   H     0.82870   0.36920   0.50410   0.04200  Uiso   1.00
C420   C     0.83740   0.51990   0.49790   0.03167  Uani   1.00
C421   C     0.85820   0.45890   0.50290   0.03700  Uani   1.00
C422   C     0.88220   0.57390   0.50470   0.04533  Uani   1.00
H423   H     0.90230   0.57360   0.56940   0.06800  Uiso   1.00
H424   H     0.91300   0.57020   0.45260   0.06800  Uiso   1.00
H425   H     0.85980   0.61230   0.49640   0.06800  Uiso   1.00
C426   C     0.92710   0.44400   0.51460   0.06433  Uani   1.00
H427   H     0.93260   0.39970   0.51760   0.09700  Uiso   1.00
H428   H     0.94960   0.46040   0.45790   0.09700  Uiso   1.00
H429   H     0.94250   0.46250   0.57550   0.09700  Uiso   1.00
Cu430  Cu    0.12524   0.11372   0.08840   0.02537  Uani   1.00
O431   O    -0.02350   0.08691   0.91665   0.02667  Uani   1.00
O432   O     0.04345   0.12711   0.02830   0.03260  Uani   1.00
O433   O    -0.02458  -0.01106   0.80370   0.03493  Uani   1.00
H434   H    -0.02360   0.02220   0.83400   0.05200  Uiso   1.00
O435   O     0.04046  -0.08945   0.77240   0.03497  Uani   1.00
N436   N     0.13156  -0.04127   0.89590   0.02067  Uani   1.00
O437   O     0.09010   0.14722   0.21670   0.04553  Uani   1.00
H438   H     0.07100   0.11830   0.24850   0.06800  Uiso   1.00
H439   H     0.11980   0.16090   0.25350   0.06800  Uiso   1.00
N440   N     0.13246   0.04646   0.98570   0.02127  Uani   1.00
C441   C     0.16549  -0.00398   0.95750   0.02063  Uani   1.00
C442   C     0.07560  -0.01220   0.88260   0.02333  Uani   1.00
C443   C     0.07642   0.04135   0.93830   0.02020  Uani   1.00
C444   C     0.02820   0.08770   0.96010   0.02600  Uani   1.00
C445   C     0.02920  -0.04050   0.81580   0.02800  Uani   1.00
C446   C     0.23099  -0.01697   0.97980   0.02300  Uani   1.00
C447   C     0.25190  -0.07780   0.98830   0.02767  Uani   1.00
H448   H     0.22360  -0.11050   0.98660   0.03300  Uiso   1.00
C449   C     0.27423   0.03120   0.98430   0.02367  Uani   1.00
H450   H     0.26050   0.07210   0.97790   0.02800  Uiso   1.00
C451   C     0.31490  -0.08990   0.99920   0.03500  Uani   1.00
H452   H     0.32870  -0.13080   0.00410   0.04200  Uiso   1.00
C453   C     0.33740   0.01990   0.99790   0.03167  Uani   1.00
C454   C     0.35820  -0.04110   0.00290   0.03700  Uani   1.00
C455   C     0.38220   0.07390   0.00470   0.04533  Uani   1.00
H456   H     0.40230   0.07360   0.06940   0.06800  Uiso   1.00
H457   H     0.41300   0.07020   0.95260   0.06800  Uiso   1.00
H458   H     0.35980   0.11230   0.99640   0.06800  Uiso   1.00
C459   C     0.42710  -0.05600   0.01460   0.06433  Uani   1.00
H460   H     0.43260  -0.10030   0.01760   0.09700  Uiso   1.00
H461   H     0.44960  -0.03960   0.95790   0.09700  Uiso   1.00
H462   H     0.44250  -0.03750   0.07550   0.09700  Uiso   1.00
Cu463  Cu    0.87476   0.38628   0.08840   0.02537  Uani   1.00
O464   O     1.02350   0.41309   0.91665   0.02667  Uani   1.00
O465   O     0.95655   0.37289   0.02830   0.03260  Uani   1.00
O466   O     1.02458   0.51106   0.80370   0.03493  Uani   1.00
H467   H     1.02360   0.47780   0.83400   0.05200  Uiso   1.00
O468   O     0.95954   0.58945   0.77240   0.03497  Uani   1.00
N469   N     0.86844   0.54127   0.89590   0.02067  Uani   1.00
O470   O     0.90990   0.35278   0.21670   0.04553  Uani   1.00
H471   H     0.92900   0.38170   0.24850   0.06800  Uiso   1.00
H472   H     0.88020   0.33910   0.25350   0.06800  Uiso   1.00
N473   N     0.86754   0.45354   0.98570   0.02127  Uani   1.00
C474   C     0.83451   0.50398   0.95750   0.02063  Uani   1.00
C475   C     0.92440   0.51220   0.88260   0.02333  Uani   1.00
C476   C     0.92358   0.45865   0.93830   0.02020  Uani   1.00
C477   C     0.97180   0.41230   0.96010   0.02600  Uani   1.00
C478   C     0.97080   0.54050   0.81580   0.02800  Uani   1.00
C479   C     0.76901   0.51697   0.97980   0.02300  Uani   1.00
C480   C     0.74810   0.57780   0.98830   0.02767  Uani   1.00
H481   H     0.77640   0.61050   0.98660   0.03300  Uiso   1.00
C482   C     0.72577   0.46880   0.98430   0.02367  Uani   1.00
H483   H     0.73950   0.42790   0.97790   0.02800  Uiso   1.00
C484   C     0.68510   0.58990   0.99920   0.03500  Uani   1.00
H485   H     0.67130   0.63080   0.00410   0.04200  Uiso   1.00
C486   C     0.66260   0.48010   0.99790   0.03167  Uani   1.00
C487   C     0.64180   0.54110   0.00290   0.03700  Uani   1.00
C488   C     0.61780   0.42610   0.00470   0.04533  Uani   1.00
H489   H     0.59770   0.42640   0.06940   0.06800  Uiso   1.00
H490   H     0.58700   0.42980   0.95260   0.06800  Uiso   1.00
H491   H     0.64020   0.38770   0.99640   0.06800  Uiso   1.00
C492   C     0.57290   0.55600   0.01460   0.06433  Uani   1.00
H493   H     0.56740   0.60030   0.01760   0.09700  Uiso   1.00
H494   H     0.55040   0.53960   0.95790   0.09700  Uiso   1.00
H495   H     0.55750   0.53750   0.07550   0.09700  Uiso   1.00
Cu496  Cu    0.37476  -0.11372   0.58840   0.02537  Uani   1.00
O497   O     0.52350  -0.08691   0.41665   0.02667  Uani   1.00
O498   O     0.45655  -0.12711   0.52830   0.03260  Uani   1.00
O499   O     0.52458   0.01106   0.30370   0.03493  Uani   1.00
H500   H     0.52360  -0.02220   0.33400   0.05200  Uiso   1.00
O501   O     0.45954   0.08945   0.27240   0.03497  Uani   1.00
N502   N     0.36844   0.04127   0.39590   0.02067  Uani   1.00
O503   O     0.40990  -0.14722   0.71670   0.04553  Uani   1.00
H504   H     0.42900  -0.11830   0.74850   0.06800  Uiso   1.00
H505   H     0.38020  -0.16090   0.75350   0.06800  Uiso   1.00
N506   N     0.36754  -0.04646   0.48570   0.02127  Uani   1.00
C507   C     0.33451   0.00398   0.45750   0.02063  Uani   1.00
C508   C     0.42440   0.01220   0.38260   0.02333  Uani   1.00
C509   C     0.42358  -0.04135   0.43830   0.02020  Uani   1.00
C510   C     0.47180  -0.08770   0.46010   0.02600  Uani   1.00
C511   C     0.47080   0.04050   0.31580   0.02800  Uani   1.00
C512   C     0.26901   0.01697   0.47980   0.02300  Uani   1.00
C513   C     0.24810   0.07780   0.48830   0.02767  Uani   1.00
H514   H     0.27640   0.11050   0.48660   0.03300  Uiso   1.00
C515   C     0.22577  -0.03120   0.48430   0.02367  Uani   1.00
H516   H     0.23950  -0.07210   0.47790   0.02800  Uiso   1.00
C517   C     0.18510   0.08990   0.49920   0.03500  Uani   1.00
H518   H     0.17130   0.13080   0.50410   0.04200  Uiso   1.00
C519   C     0.16260  -0.01990   0.49790   0.03167  Uani   1.00
C520   C     0.14180   0.04110   0.50290   0.03700  Uani   1.00
C521   C     0.11780  -0.07390   0.50470   0.04533  Uani   1.00
H522   H     0.09770  -0.07360   0.56940   0.06800  Uiso   1.00
H523   H     0.08700  -0.07020   0.45260   0.06800  Uiso   1.00
H524   H     0.14020  -0.11230   0.49640   0.06800  Uiso   1.00
C525   C     0.07290   0.05600   0.51460   0.06433  Uani   1.00
H526   H     0.06740   0.10030   0.51760   0.09700  Uiso   1.00
H527   H     0.05040   0.03960   0.45790   0.09700  Uiso   1.00
H528   H     0.05750   0.03750   0.57550   0.09700  Uiso   1.00
loop_
_atom_site_aniso_label
_atom_site_aniso_U_11
_atom_site_aniso_U_22
_atom_site_aniso_U_33
_atom_site_aniso_U_12
_atom_site_aniso_U_13
_atom_site_aniso_U_23
Cu1       0.02180   0.02050   0.03380  -0.00250  -0.00790   0.00590
O2        0.02870   0.01660   0.03470  -0.00530  -0.00670   0.00500
O3        0.02530   0.02630   0.04620  -0.00660  -0.01510   0.00920
O4        0.03460   0.02030   0.04990  -0.00330  -0.01560   0.00860
O6        0.03310   0.02940   0.04240  -0.00250  -0.01680   0.00810
N7        0.02500   0.01240   0.02460   0.00000  -0.00480  -0.00380
O8        0.05000   0.03200   0.05460   0.01570  -0.02780  -0.00510
N11       0.01840   0.01520   0.03020   0.00010  -0.00070   0.00060
C12       0.02100   0.02000   0.02090   0.00170  -0.00170  -0.00200
C13       0.02100   0.02200   0.02700   0.00350   0.00180  -0.00060
C14       0.02200   0.01600   0.02260  -0.00380   0.00040   0.00120
C15       0.02200   0.02500   0.03100  -0.00010   0.00000  -0.00200
C16       0.03200   0.02000   0.03200   0.00310  -0.00200   0.00070
C17       0.02500   0.01700   0.02700  -0.00360  -0.01000   0.00080
C18       0.02400   0.02600   0.03300  -0.00170  -0.00220  -0.00060
C20       0.02700   0.01900   0.02500   0.00120  -0.00210  -0.00150
C22       0.03500   0.02600   0.04400  -0.00900  -0.00500   0.00700
C24       0.03900   0.02000   0.03600   0.00300  -0.00600  -0.00100
C25       0.04900   0.01800   0.04400  -0.01000  -0.01300   0.00500
C26       0.05200   0.02700   0.05700   0.01200  -0.01300   0.00300
C30       0.06800   0.02500   0.10000  -0.00700  -0.01200   0.00900
Cu34      0.02180   0.02050   0.03380  -0.00250  -0.00790   0.00590
O35       0.02870   0.01660   0.03470  -0.00530  -0.00670   0.00500
O36       0.02530   0.02630   0.04620  -0.00660  -0.01510   0.00920
O37       0.03460   0.02030   0.04990  -0.00330  -0.01560   0.00860
O39       0.03310   0.02940   0.04240  -0.00250  -0.01680   0.00810
N40       0.02500   0.01240   0.02460   0.00000  -0.00480  -0.00380
O41       0.05000   0.03200   0.05460   0.01570  -0.02780  -0.00510
N44       0.01840   0.01520   0.03020   0.00010  -0.00070   0.00060
C45       0.02100   0.02000   0.02090   0.00170  -0.00170  -0.00200
C46       0.02100   0.02200   0.02700   0.00350   0.00180  -0.00060
C47       0.02200   0.01600   0.02260  -0.00380   0.00040   0.00120
C48       0.02200   0.02500   0.03100  -0.00010   0.00000  -0.00200
C49       0.03200   0.02000   0.03200   0.00310  -0.00200   0.00070
C50       0.02500   0.01700   0.02700  -0.00360  -0.01000   0.00080
C51       0.02400   0.02600   0.03300  -0.00170  -0.00220  -0.00060
C53       0.02700   0.01900   0.02500   0.00120  -0.00210  -0.00150
C55       0.03500   0.02600   0.04400  -0.00900  -0.00500   0.00700
C57       0.03900   0.02000   0.03600   0.00300  -0.00600  -0.00100
C58       0.04900   0.01800   0.04400  -0.01000  -0.01300   0.00500
C59       0.05200   0.02700   0.05700   0.01200  -0.01300   0.00300
C63       0.06800   0.02500   0.10000  -0.00700  -0.01200   0.00900
Cu67      0.02180   0.02050   0.03380  -0.00250   0.00790  -0.00590
O68       0.02870   0.01660   0.03470  -0.00530   0.00670  -0.00500
O69       0.02530   0.02630   0.04620  -0.00660   0.01510  -0.00920
O70       0.03460   0.02030   0.04990  -0.00330   0.01560  -0.00860
O72       0.03310   0.02940   0.04240  -0.00250   0.01680  -0.00810
N73       0.02500   0.01240   0.02460   0.00000   0.00480   0.00380
O74       0.05000   0.03200   0.05460   0.01570   0.02780   0.00510
N77       0.01840   0.01520   0.03020   0.00010   0.00070  -0.00060
C78       0.02100   0.02000   0.02090   0.00170   0.00170   0.00200
C79       0.02100   0.02200   0.02700   0.00350  -0.00180   0.00060
C80       0.02200   0.01600   0.02260  -0.00380  -0.00040  -0.00120
C81       0.02200   0.02500   0.03100  -0.00010   0.00000   0.00200
C82       0.03200   0.02000   0.03200   0.00310   0.00200  -0.00070
C83       0.02500   0.01700   0.02700  -0.00360   0.01000  -0.00080
C84       0.02400   0.02600   0.03300  -0.00170   0.00220   0.00060
C86       0.02700   0.01900   0.02500   0.00120   0.00210   0.00150
C88       0.03500   0.02600   0.04400  -0.00900   0.00500  -0.00700
C90       0.03900   0.02000   0.03600   0.00300   0.00600   0.00100
C91       0.04900   0.01800   0.04400  -0.01000   0.01300  -0.00500
C92       0.05200   0.02700   0.05700   0.01200   0.01300  -0.00300
C96       0.06800   0.02500   0.10000  -0.00700   0.01200  -0.00900
Cu100     0.02180   0.02050   0.03380  -0.00250   0.00790  -0.00590
O101      0.02870   0.01660   0.03470  -0.00530   0.00670  -0.00500
O102      0.02530   0.02630   0.04620  -0.00660   0.01510  -0.00920
O103      0.03460   0.02030   0.04990  -0.00330   0.01560  -0.00860
O105      0.03310   0.02940   0.04240  -0.00250   0.01680  -0.00810
N106      0.02500   0.01240   0.02460   0.00000   0.00480   0.00380
O107      0.05000   0.03200   0.05460   0.01570   0.02780   0.00510
N110      0.01840   0.01520   0.03020   0.00010   0.00070  -0.00060
C111      0.02100   0.02000   0.02090   0.00170   0.00170   0.00200
C112      0.02100   0.02200   0.02700   0.00350  -0.00180   0.00060
C113      0.02200   0.01600   0.02260  -0.00380  -0.00040  -0.00120
C114      0.02200   0.02500   0.03100  -0.00010   0.00000   0.00200
C115      0.03200   0.02000   0.03200   0.00310   0.00200  -0.00070
C116      0.02500   0.01700   0.02700  -0.00360   0.01000  -0.00080
C117      0.02400   0.02600   0.03300  -0.00170   0.00220   0.00060
C119      0.02700   0.01900   0.02500   0.00120   0.00210   0.00150
C121      0.03500   0.02600   0.04400  -0.00900   0.00500  -0.00700
C123      0.03900   0.02000   0.03600   0.00300   0.00600   0.00100
C124      0.04900   0.01800   0.04400  -0.01000   0.01300  -0.00500
C125      0.05200   0.02700   0.05700   0.01200   0.01300  -0.00300
C129      0.06800   0.02500   0.10000  -0.00700   0.01200  -0.00900
Cu133     0.02050   0.02180   0.03380   0.00250  -0.00590  -0.00790
O134      0.01660   0.02870   0.03470   0.00530  -0.00500  -0.00670
O135      0.02630   0.02530   0.04620   0.00660  -0.00920  -0.01510
O136      0.02030   0.03460   0.04990   0.00330  -0.00860  -0.01560
O138      0.02940   0.03310   0.04240   0.00250  -0.00810  -0.01680
N139      0.01240   0.02500   0.02460   0.00000   0.00380  -0.00480
O140      0.03200   0.05000   0.05460  -0.01570   0.00510  -0.02780
N143      0.01520   0.01840   0.03020  -0.00010  -0.00060  -0.00070
C144      0.02000   0.02100   0.02090  -0.00170   0.00200  -0.00170
C145      0.02200   0.02100   0.02700  -0.00350   0.00060   0.00180
C146      0.01600   0.02200   0.02260   0.00380  -0.00120   0.00040
C147      0.02500   0.02200   0.03100   0.00010   0.00200   0.00000
C148      0.02000   0.03200   0.03200  -0.00310  -0.00070  -0.00200
C149      0.01700   0.02500   0.02700   0.00360  -0.00080  -0.01000
C150      0.02600   0.02400   0.03300   0.00170   0.00060  -0.00220
C152      0.01900   0.02700   0.02500  -0.00120   0.00150  -0.00210
C154      0.02600   0.03500   0.04400   0.00900  -0.00700  -0.00500
C156      0.02000   0.03900   0.03600  -0.00300   0.00100  -0.00600
C157      0.01800   0.04900   0.04400   0.01000  -0.00500  -0.01300
C158      0.02700   0.05200   0.05700  -0.01200  -0.00300  -0.01300
C162      0.02500   0.06800   0.10000   0.00700  -0.00900  -0.01200
Cu166     0.02050   0.02180   0.03380   0.00250  -0.00590  -0.00790
O167      0.01660   0.02870   0.03470   0.00530  -0.00500  -0.00670
O168      0.02630   0.02530   0.04620   0.00660  -0.00920  -0.01510
O169      0.02030   0.03460   0.04990   0.00330  -0.00860  -0.01560
O171      0.02940   0.03310   0.04240   0.00250  -0.00810  -0.01680
N172      0.01240   0.02500   0.02460   0.00000   0.00380  -0.00480
O173      0.03200   0.05000   0.05460  -0.01570   0.00510  -0.02780
N176      0.01520   0.01840   0.03020  -0.00010  -0.00060  -0.00070
C177      0.02000   0.02100   0.02090  -0.00170   0.00200  -0.00170
C178      0.02200   0.02100   0.02700  -0.00350   0.00060   0.00180
C179      0.01600   0.02200   0.02260   0.00380  -0.00120   0.00040
C180      0.02500   0.02200   0.03100   0.00010   0.00200   0.00000
C181      0.02000   0.03200   0.03200  -0.00310  -0.00070  -0.00200
C182      0.01700   0.02500   0.02700   0.00360  -0.00080  -0.01000
C183      0.02600   0.02400   0.03300   0.00170   0.00060  -0.00220
C185      0.01900   0.02700   0.02500  -0.00120   0.00150  -0.00210
C187      0.02600   0.03500   0.04400   0.00900  -0.00700  -0.00500
C189      0.02000   0.03900   0.03600  -0.00300   0.00100  -0.00600
C190      0.01800   0.04900   0.04400   0.01000  -0.00500  -0.01300
C191      0.02700   0.05200   0.05700  -0.01200  -0.00300  -0.01300
C195      0.02500   0.06800   0.10000   0.00700  -0.00900  -0.01200
Cu199     0.02050   0.02180   0.03380   0.00250   0.00590   0.00790
O200      0.01660   0.02870   0.03470   0.00530   0.00500   0.00670
O201      0.02630   0.02530   0.04620   0.00660   0.00920   0.01510
O202      0.02030   0.03460   0.04990   0.00330   0.00860   0.01560
O204      0.02940   0.03310   0.04240   0.00250   0.00810   0.01680
N205      0.01240   0.02500   0.02460   0.00000  -0.00380   0.00480
O206      0.03200   0.05000   0.05460  -0.01570  -0.00510   0.02780
N209      0.01520   0.01840   0.03020  -0.00010   0.00060   0.00070
C210      0.02000   0.02100   0.02090  -0.00170  -0.00200   0.00170
C211      0.02200   0.02100   0.02700  -0.00350  -0.00060  -0.00180
C212      0.01600   0.02200   0.02260   0.00380   0.00120  -0.00040
C213      0.02500   0.02200   0.03100   0.00010  -0.00200   0.00000
C214      0.02000   0.03200   0.03200  -0.00310   0.00070   0.00200
C215      0.01700   0.02500   0.02700   0.00360   0.00080   0.01000
C216      0.02600   0.02400   0.03300   0.00170  -0.00060   0.00220
C218      0.01900   0.02700   0.02500  -0.00120  -0.00150   0.00210
C220      0.02600   0.03500   0.04400   0.00900   0.00700   0.00500
C222      0.02000   0.03900   0.03600  -0.00300  -0.00100   0.00600
C223      0.01800   0.04900   0.04400   0.01000   0.00500   0.01300
C224      0.02700   0.05200   0.05700  -0.01200   0.00300   0.01300
C228      0.02500   0.06800   0.10000   0.00700   0.00900   0.01200
Cu232     0.02050   0.02180   0.03380   0.00250   0.00590   0.00790
O233      0.01660   0.02870   0.03470   0.00530   0.00500   0.00670
O234      0.02630   0.02530   0.04620   0.00660   0.00920   0.01510
O235      0.02030   0.03460   0.04990   0.00330   0.00860   0.01560
O237      0.02940   0.03310   0.04240   0.00250   0.00810   0.01680
N238      0.01240   0.02500   0.02460   0.00000  -0.00380   0.00480
O239      0.03200   0.05000   0.05460  -0.01570  -0.00510   0.02780
N242      0.01520   0.01840   0.03020  -0.00010   0.00060   0.00070
C243      0.02000   0.02100   0.02090  -0.00170  -0.00200   0.00170
C244      0.02200   0.02100   0.02700  -0.00350  -0.00060  -0.00180
C245      0.01600   0.02200   0.02260   0.00380   0.00120  -0.00040
C246      0.02500   0.02200   0.03100   0.00010  -0.00200   0.00000
C247      0.02000   0.03200   0.03200  -0.00310   0.00070   0.00200
C248      0.01700   0.02500   0.02700   0.00360   0.00080   0.01000
C249      0.02600   0.02400   0.03300   0.00170  -0.00060   0.00220
C251      0.01900   0.02700   0.02500  -0.00120  -0.00150   0.00210
C253      0.02600   0.03500   0.04400   0.00900   0.00700   0.00500
C255      0.02000   0.03900   0.03600  -0.00300  -0.00100   0.00600
C256      0.01800   0.04900   0.04400   0.01000   0.00500   0.01300
C257      0.02700   0.05200   0.05700  -0.01200   0.00300   0.01300
C261      0.02500   0.06800   0.10000   0.00700   0.00900   0.01200
Cu265     0.02180   0.02050   0.03380  -0.00250  -0.00790   0.00590
O266      0.02870   0.01660   0.03470  -0.00530  -0.00670   0.00500
O267      0.02530   0.02630   0.04620  -0.00660  -0.01510   0.00920
O268      0.03460   0.02030   0.04990  -0.00330  -0.01560   0.00860
O270      0.03310   0.02940   0.04240  -0.00250  -0.01680   0.00810
N271      0.02500   0.01240   0.02460   0.00000  -0.00480  -0.00380
O272      0.05000   0.03200   0.05460   0.01570  -0.02780  -0.00510
N275      0.01840   0.01520   0.03020   0.00010  -0.00070   0.00060
C276      0.02100   0.02000   0.02090   0.00170  -0.00170  -0.00200
C277      0.02100   0.02200   0.02700   0.00350   0.00180  -0.00060
C278      0.02200   0.01600   0.02260  -0.00380   0.00040   0.00120
C279      0.02200   0.02500   0.03100  -0.00010   0.00000  -0.00200
C280      0.03200   0.02000   0.03200   0.00310  -0.00200   0.00070
C281      0.02500   0.01700   0.02700  -0.00360  -0.01000   0.00080
C282      0.02400   0.02600   0.03300  -0.00170  -0.00220  -0.00060
C284      0.02700   0.01900   0.02500   0.00120  -0.00210  -0.00150
C286      0.03500   0.02600   0.04400  -0.00900  -0.00500   0.00700
C288      0.03900   0.02000   0.03600   0.00300  -0.00600  -0.00100
C289      0.04900   0.01800   0.04400  -0.01000  -0.01300   0.00500
C290      0.05200   0.02700   0.05700   0.01200  -0.01300   0.00300
C294      0.06800   0.02500   0.10000  -0.00700  -0.01200   0.00900
Cu298     0.02180   0.02050   0.03380  -0.00250  -0.00790   0.00590
O299      0.02870   0.01660   0.03470  -0.00530  -0.00670   0.00500
O300      0.02530   0.02630   0.04620  -0.00660  -0.01510   0.00920
O301      0.03460   0.02030   0.04990  -0.00330  -0.01560   0.00860
O303      0.03310   0.02940   0.04240  -0.00250  -0.01680   0.00810
N304      0.02500   0.01240   0.02460   0.00000  -0.00480  -0.00380
O305      0.05000   0.03200   0.05460   0.01570  -0.02780  -0.00510
N308      0.01840   0.01520   0.03020   0.00010  -0.00070   0.00060
C309      0.02100   0.02000   0.02090   0.00170  -0.00170  -0.00200
C310      0.02100   0.02200   0.02700   0.00350   0.00180  -0.00060
C311      0.02200   0.01600   0.02260  -0.00380   0.00040   0.00120
C312      0.02200   0.02500   0.03100  -0.00010   0.00000  -0.00200
C313      0.03200   0.02000   0.03200   0.00310  -0.00200   0.00070
C314      0.02500   0.01700   0.02700  -0.00360  -0.01000   0.00080
C315      0.02400   0.02600   0.03300  -0.00170  -0.00220  -0.00060
C317      0.02700   0.01900   0.02500   0.00120  -0.00210  -0.00150
C319      0.03500   0.02600   0.04400  -0.00900  -0.00500   0.00700
C321      0.03900   0.02000   0.03600   0.00300  -0.00600  -0.00100
C322      0.04900   0.01800   0.04400  -0.01000  -0.01300   0.00500
C323      0.05200   0.02700   0.05700   0.01200  -0.01300   0.00300
C327      0.06800   0.02500   0.10000  -0.00700  -0.01200   0.00900
Cu331     0.02180   0.02050   0.03380  -0.00250   0.00790  -0.00590
O332      0.02870   0.01660   0.03470  -0.00530   0.00670  -0.00500
O333      0.02530   0.02630   0.04620  -0.00660   0.01510  -0.00920
O334      0.03460   0.02030   0.04990  -0.00330   0.01560  -0.00860
O336      0.03310   0.02940   0.04240  -0.00250   0.01680  -0.00810
N337      0.02500   0.01240   0.02460   0.00000   0.00480   0.00380
O338      0.05000   0.03200   0.05460   0.01570   0.02780   0.00510
N341      0.01840   0.01520   0.03020   0.00010   0.00070  -0.00060
C342      0.02100   0.02000   0.02090   0.00170   0.00170   0.00200
C343      0.02100   0.02200   0.02700   0.00350  -0.00180   0.00060
C344      0.02200   0.01600   0.02260  -0.00380  -0.00040  -0.00120
C345      0.02200   0.02500   0.03100  -0.00010   0.00000   0.00200
C346      0.03200   0.02000   0.03200   0.00310   0.00200  -0.00070
C347      0.02500   0.01700   0.02700  -0.00360   0.01000  -0.00080
C348      0.02400   0.02600   0.03300  -0.00170   0.00220   0.00060
C350      0.02700   0.01900   0.02500   0.00120   0.00210   0.00150
C352      0.03500   0.02600   0.04400  -0.00900   0.00500  -0.00700
C354      0.03900   0.02000   0.03600   0.00300   0.00600   0.00100
C355      0.04900   0.01800   0.04400  -0.01000   0.01300  -0.00500
C356      0.05200   0.02700   0.05700   0.01200   0.01300  -0.00300
C360      0.06800   0.02500   0.10000  -0.00700   0.01200  -0.00900
Cu364     0.02180   0.02050   0.03380  -0.00250   0.00790  -0.00590
O365      0.02870   0.01660   0.03470  -0.00530   0.00670  -0.00500
O366      0.02530   0.02630   0.04620  -0.00660   0.01510  -0.00920
O367      0.03460   0.02030   0.04990  -0.00330   0.01560  -0.00860
O369      0.03310   0.02940   0.04240  -0.00250   0.01680  -0.00810
N370      0.02500   0.01240   0.02460   0.00000   0.00480   0.00380
O371      0.05000   0.03200   0.05460   0.01570   0.02780   0.00510
N374      0.01840   0.01520   0.03020   0.00010   0.00070  -0.00060
C375      0.02100   0.02000   0.02090   0.00170   0.00170   0.00200
C376      0.02100   0.02200   0.02700   0.00350  -0.00180   0.00060
C377      0.02200   0.01600   0.02260  -0.00380  -0.00040  -0.00120
C378      0.02200   0.02500   0.03100  -0.00010   0.00000   0.00200
C379      0.03200   0.02000   0.03200   0.00310   0.00200  -0.00070
C380      0.02500   0.01700   0.02700  -0.00360   0.01000  -0.00080
C381      0.02400   0.02600   0.03300  -0.00170   0.00220   0.00060
C383      0.02700   0.01900   0.02500   0.00120   0.00210   0.00150
C385      0.03500   0.02600   0.04400  -0.00900   0.00500  -0.00700
C387      0.03900   0.02000   0.03600   0.00300   0.00600   0.00100
C388      0.04900   0.01800   0.04400  -0.01000   0.01300  -0.00500
C389      0.05200   0.02700   0.05700   0.01200   0.01300  -0.00300
C393      0.06800   0.02500   0.10000  -0.00700   0.01200  -0.00900
Cu397     0.02050   0.02180   0.03380   0.00250  -0.00590  -0.00790
O398      0.01660   0.02870   0.03470   0.00530  -0.00500  -0.00670
O399      0.02630   0.02530   0.04620   0.00660  -0.00920  -0.01510
O400      0.02030   0.03460   0.04990   0.00330  -0.00860  -0.01560
O402      0.02940   0.03310   0.04240   0.00250  -0.00810  -0.01680
N403      0.01240   0.02500   0.02460   0.00000   0.00380  -0.00480
O404      0.03200   0.05000   0.05460  -0.01570   0.00510  -0.02780
N407      0.01520   0.01840   0.03020  -0.00010  -0.00060  -0.00070
C408      0.02000   0.02100   0.02090  -0.00170   0.00200  -0.00170
C409      0.02200   0.02100   0.02700  -0.00350   0.00060   0.00180
C410      0.01600   0.02200   0.02260   0.00380  -0.00120   0.00040
C411      0.02500   0.02200   0.03100   0.00010   0.00200   0.00000
C412      0.02000   0.03200   0.03200  -0.00310  -0.00070  -0.00200
C413      0.01700   0.02500   0.02700   0.00360  -0.00080  -0.01000
C414      0.02600   0.02400   0.03300   0.00170   0.00060  -0.00220
C416      0.01900   0.02700   0.02500  -0.00120   0.00150  -0.00210
C418      0.02600   0.03500   0.04400   0.00900  -0.00700  -0.00500
C420      0.02000   0.03900   0.03600  -0.00300   0.00100  -0.00600
C421      0.01800   0.04900   0.04400   0.01000  -0.00500  -0.01300
C422      0.02700   0.05200   0.05700  -0.01200  -0.00300  -0.01300
C426      0.02500   0.06800   0.10000   0.00700  -0.00900  -0.01200
Cu430     0.02050   0.02180   0.03380   0.00250  -0.00590  -0.00790
O431      0.01660   0.02870   0.03470   0.00530  -0.00500  -0.00670
O432      0.02630   0.02530   0.04620   0.00660  -0.00920  -0.01510
O433      0.02030   0.03460   0.04990   0.00330  -0.00860  -0.01560
O435      0.02940   0.03310   0.04240   0.00250  -0.00810  -0.01680
N436      0.01240   0.02500   0.02460   0.00000   0.00380  -0.00480
O437      0.03200   0.05000   0.05460  -0.01570   0.00510  -0.02780
N440      0.01520   0.01840   0.03020  -0.00010  -0.00060  -0.00070
C441      0.02000   0.02100   0.02090  -0.00170   0.00200  -0.00170
C442      0.02200   0.02100   0.02700  -0.00350   0.00060   0.00180
C443      0.01600   0.02200   0.02260   0.00380  -0.00120   0.00040
C444      0.02500   0.02200   0.03100   0.00010   0.00200   0.00000
C445      0.02000   0.03200   0.03200  -0.00310  -0.00070  -0.00200
C446      0.01700   0.02500   0.02700   0.00360  -0.00080  -0.01000
C447      0.02600   0.02400   0.03300   0.00170   0.00060  -0.00220
C449      0.01900   0.02700   0.02500  -0.00120   0.00150  -0.00210
C451      0.02600   0.03500   0.04400   0.00900  -0.00700  -0.00500
C453      0.02000   0.03900   0.03600  -0.00300   0.00100  -0.00600
C454      0.01800   0.04900   0.04400   0.01000  -0.00500  -0.01300
C455      0.02700   0.05200   0.05700  -0.01200  -0.00300  -0.01300
C459      0.02500   0.06800   0.10000   0.00700  -0.00900  -0.01200
Cu463     0.02050   0.02180   0.03380   0.00250   0.00590   0.00790
O464      0.01660   0.02870   0.03470   0.00530   0.00500   0.00670
O465      0.02630   0.02530   0.04620   0.00660   0.00920   0.01510
O466      0.02030   0.03460   0.04990   0.00330   0.00860   0.01560
O468      0.02940   0.03310   0.04240   0.00250   0.00810   0.01680
N469      0.01240   0.02500   0.02460   0.00000  -0.00380   0.00480
O470      0.03200   0.05000   0.05460  -0.01570  -0.00510   0.02780
N473      0.01520   0.01840   0.03020  -0.00010   0.00060   0.00070
C474      0.02000   0.02100   0.02090  -0.00170  -0.00200   0.00170
C475      0.02200   0.02100   0.02700  -0.00350  -0.00060  -0.00180
C476      0.01600   0.02200   0.02260   0.00380   0.00120  -0.00040
C477      0.02500   0.02200   0.03100   0.00010  -0.00200   0.00000
C478      0.02000   0.03200   0.03200  -0.00310   0.00070   0.00200
C479      0.01700   0.02500   0.02700   0.00360   0.00080   0.01000
C480      0.02600   0.02400   0.03300   0.00170  -0.00060   0.00220
C482      0.01900   0.02700   0.02500  -0.00120  -0.00150   0.00210
C484      0.02600   0.03500   0.04400   0.00900   0.00700   0.00500
C486      0.02000   0.03900   0.03600  -0.00300  -0.00100   0.00600
C487      0.01800   0.04900   0.04400   0.01000   0.00500   0.01300
C488      0.02700   0.05200   0.05700  -0.01200   0.00300   0.01300
C492      0.02500   0.06800   0.10000   0.00700   0.00900   0.01200
Cu496     0.02050   0.02180   0.03380   0.00250   0.00590   0.00790
O497      0.01660   0.02870   0.03470   0.00530   0.00500   0.00670
O498      0.02630   0.02530   0.04620   0.00660   0.00920   0.01510
O499      0.02030   0.03460   0.04990   0.00330   0.00860   0.01560
O501      0.02940   0.03310   0.04240   0.00250   0.00810   0.01680
N502      0.01240   0.02500   0.02460   0.00000  -0.00380   0.00480
O503      0.03200   0.05000   0.05460  -0.01570  -0.00510   0.02780
N506      0.01520   0.01840   0.03020  -0.00010   0.00060   0.00070
C507      0.02000   0.02100   0.02090  -0.00170  -0.00200   0.00170
C508      0.02200   0.02100   0.02700  -0.00350  -0.00060  -0.00180
C509      0.01600   0.02200   0.02260   0.00380   0.00120  -0.00040
C510      0.02500   0.02200   0.03100   0.00010  -0.00200   0.00000
C511      0.02000   0.03200   0.03200  -0.00310   0.00070   0.00200
C512      0.01700   0.02500   0.02700   0.00360   0.00080   0.01000
C513      0.02600   0.02400   0.03300   0.00170  -0.00060   0.00220
C515      0.01900   0.02700   0.02500  -0.00120  -0.00150   0.00210
C517      0.02600   0.03500   0.04400   0.00900   0.00700   0.00500
C519      0.02000   0.03900   0.03600  -0.00300  -0.00100   0.00600
C520      0.01800   0.04900   0.04400   0.01000   0.00500   0.01300
C521      0.02700   0.05200   0.05700  -0.01200   0.00300   0.01300
C525      0.02500   0.06800   0.10000   0.00700   0.00900   0.01200
loop_
_geom_bond_atom_site_label_1
_geom_bond_atom_site_label_2
_geom_bond_distance
_geom_bond_site_symmetry_2
_ccdc_geom_bond_type
Cu1    O3      1.951   .     S
Cu1    O8      1.996   .     S
Cu1    N11     1.992   .     S
Cu1    O204    2.362   .     S
Cu1    N205    1.952   .     S
O2     C15     1.251   .     S
O3     C15     1.281   .     S
O4     H5      0.820   .     S
O4     C16     1.327   .     S
O6     C16     1.223   .     S
O6     Cu133   2.362   .     S
N7     C12     1.357   .     S
N7     C13     1.366   .     S
N7     Cu133   1.952   .     S
O8     H9      0.856   .     S
O8     H10     0.855   1_554 S
H10    O8      0.855   1_556 S
N11    C12     1.348   .     S
N11    C14     1.363   .     S
C12    C17     1.465   .     S
C13    C14     1.367   .     S
C13    C16     1.466   .     S
C14    C15     1.466   .     S
C17    C18     1.386   .     S
C17    C20     1.392   .     S
C18    H19     0.929   .     S
C18    C22     1.386   .     S
C20    H21     0.931   .     S
C20    C24     1.390   .     S
C22    H23     0.930   .     S
C22    C25     1.402   .     S
C24    C26     1.510   .     S
C24    C25     1.386   .     S
C25    C30     1.522   .     S
C26    H27     0.961   .     S
C26    H28     0.960   .     S
C26    H29     0.961   .     S
C30    H31     0.960   .     S
C30    H32     0.961   .     S
C30    H33     0.959   .     S
Cu34   O36     1.951   .     S
Cu34   O41     1.996   .     S
Cu34   N44     1.992   .     S
Cu34   O237    2.362   .     S
Cu34   N238    1.952   .     S
O35    C48     1.251   .     S
O36    C48     1.281   .     S
O37    H38     0.820   .     S
O37    C49     1.327   .     S
O39    C49     1.223   .     S
O39    Cu166   2.362   .     S
N40    C45     1.357   .     S
N40    C46     1.366   .     S
N40    Cu166   1.952   .     S
O41    H42     0.856   .     S
O41    H43     0.855   .     S
N44    C45     1.348   .     S
N44    C47     1.363   .     S
C45    C50     1.465   .     S
C46    C47     1.367   .     S
C46    C49     1.466   .     S
C47    C48     1.466   .     S
C50    C51     1.386   .     S
C50    C53     1.392   .     S
C51    H52     0.929   .     S
C51    C55     1.386   .     S
C53    H54     0.931   .     S
C53    C57     1.390   .     S
C55    H56     0.930   .     S
C55    C58     1.402   .     S
C57    C59     1.510   .     S
C57    C58     1.386   .     S
C58    C63     1.522   .     S
C59    H60     0.961   .     S
C59    H61     0.960   .     S
C59    H62     0.961   .     S
C63    H64     0.960   .     S
C63    H65     0.961   .     S
C63    H66     0.959   .     S
Cu67   O69     1.951   .     S
Cu67   O74     1.996   .     S
Cu67   N77     1.992   .     S
Cu67   O138    2.362   .     S
Cu67   N139    1.952   .     S
O68    C81     1.251   .     S
O69    C81     1.281   .     S
O70    H71     0.820   .     S
O70    C82     1.327   .     S
O72    C82     1.223   .     S
O72    Cu199   2.362   .     S
N73    C78     1.357   .     S
N73    C79     1.366   .     S
N73    Cu199   1.952   .     S
O74    H75     0.856   .     S
O74    H76     0.855   .     S
N77    C78     1.348   .     S
N77    C80     1.363   .     S
C78    C83     1.465   .     S
C79    C80     1.367   .     S
C79    C82     1.466   .     S
C80    C81     1.466   .     S
C83    C84     1.386   .     S
C83    C86     1.392   .     S
C84    H85     0.929   .     S
C84    C88     1.386   .     S
C86    H87     0.931   .     S
C86    C90     1.390   .     S
C88    H89     0.930   .     S
C88    C91     1.402   .     S
C90    C92     1.510   .     S
C90    C91     1.386   .     S
C91    C96     1.522   .     S
C92    H93     0.961   .     S
C92    H94     0.960   .     S
C92    H95     0.961   .     S
C96    H97     0.960   .     S
C96    H98     0.961   .     S
C96    H99     0.959   .     S
Cu100  O102    1.951   .     S
Cu100  O107    1.996   .     S
Cu100  N110    1.992   .     S
Cu100  O171    2.362   .     S
Cu100  N172    1.952   .     S
O101   C114    1.251   .     S
O102   C114    1.281   .     S
O103   H104    0.820   .     S
O103   C115    1.327   .     S
O105   C115    1.223   .     S
O105   Cu232   2.362   .     S
N106   C111    1.357   .     S
N106   C112    1.366   .     S
N106   Cu232   1.952   .     S
O107   H108    0.856   .     S
O107   H109    0.855   1_554 S
H109   O107    0.855   1_556 S
N110   C111    1.348   .     S
N110   C113    1.363   .     S
C111   C116    1.465   .     S
C112   C113    1.367   .     S
C112   C115    1.466   .     S
C113   C114    1.466   .     S
C116   C117    1.386   .     S
C116   C119    1.392   .     S
C117   H118    0.929   .     S
C117   C121    1.386   .     S
C119   H120    0.931   .     S
C119   C123    1.390   .     S
C121   H122    0.930   .     S
C121   C124    1.402   .     S
C123   C125    1.510   .     S
C123   C124    1.386   .     S
C124   C129    1.522   .     S
C125   H126    0.961   .     S
C125   H127    0.960   .     S
C125   H128    0.961   .     S
C129   H130    0.960   .     S
C129   H131    0.961   .     S
C129   H132    0.959   .     S
Cu133  O135    1.951   .     S
Cu133  O140    1.996   .     S
Cu133  N143    1.992   .     S
O134   C147    1.251   .     S
O135   C147    1.281   .     S
O136   H137    0.820   .     S
O136   C148    1.327   .     S
O138   C148    1.223   .     S
N139   C144    1.357   .     S
N139   C145    1.366   .     S
O140   H141    0.856   .     S
O140   H142    0.855   .     S
N143   C144    1.348   .     S
N143   C146    1.363   .     S
C144   C149    1.465   .     S
C145   C146    1.367   .     S
C145   C148    1.466   .     S
C146   C147    1.466   .     S
C149   C150    1.386   .     S
C149   C152    1.392   .     S
C150   H151    0.929   .     S
C150   C154    1.386   .     S
C152   H153    0.931   .     S
C152   C156    1.390   .     S
C154   H155    0.930   .     S
C154   C157    1.402   .     S
C156   C158    1.510   .     S
C156   C157    1.386   .     S
C157   C162    1.522   .     S
C158   H159    0.961   .     S
C158   H160    0.960   .     S
C158   H161    0.961   .     S
C162   H163    0.960   .     S
C162   H164    0.961   .     S
C162   H165    0.959   .     S
Cu166  O168    1.951   .     S
Cu166  O173    1.996   .     S
Cu166  N176    1.992   1_556 S
O167   C180    1.251   .     S
O168   C180    1.281   1_556 S
O169   H170    0.820   .     S
O169   C181    1.327   .     S
O171   C181    1.223   .     S
N172   C177    1.357   .     S
N172   C178    1.366   .     S
O173   H174    0.856   .     S
O173   H175    0.855   .     S
N176   Cu166   1.992   1_554 S
N176   C177    1.348   .     S
N176   C179    1.363   .     S
C177   C182    1.465   .     S
C178   C179    1.367   .     S
C178   C181    1.466   .     S
C179   C180    1.466   .     S
C180   O168    1.281   1_554 S
C182   C183    1.386   .     S
C182   C185    1.392   .     S
C183   H184    0.929   .     S
C183   C187    1.386   .     S
C185   H186    0.931   .     S
C185   C189    1.390   .     S
C187   H188    0.930   1_554 S
C187   C190    1.402   1_554 S
H188   C187    0.930   1_556 S
C189   C191    1.510   1_554 S
C189   C190    1.386   1_554 S
C190   C187    1.402   1_556 S
C190   C195    1.522   .     S
C190   C189    1.386   1_556 S
C191   C189    1.510   1_556 S
C191   H192    0.961   .     S
C191   H193    0.960   1_556 S
C191   H194    0.961   1_556 S
H193   C191    0.960   1_554 S
H194   C191    0.961   1_554 S
C195   H196    0.960   .     S
C195   H197    0.961   1_556 S
C195   H198    0.959   .     S
H197   C195    0.961   1_554 S
Cu199  O201    1.951   .     S
Cu199  O206    1.996   .     S
Cu199  N209    1.992   1_556 S
O200   C213    1.251   .     S
O201   C213    1.281   1_556 S
O202   H203    0.820   .     S
O202   C214    1.327   .     S
O204   C214    1.223   .     S
N205   C210    1.357   .     S
N205   C211    1.366   .     S
O206   H207    0.856   .     S
O206   H208    0.855   .     S
N209   Cu199   1.992   1_554 S
N209   C210    1.348   .     S
N209   C212    1.363   .     S
C210   C215    1.465   .     S
C211   C212    1.367   .     S
C211   C214    1.466   .     S
C212   C213    1.466   .     S
C213   O201    1.281   1_554 S
C215   C216    1.386   .     S
C215   C218    1.392   .     S
C216   H217    0.929   .     S
C216   C220    1.386   .     S
C218   H219    0.931   .     S
C218   C222    1.390   .     S
C220   H221    0.930   1_554 S
C220   C223    1.402   1_554 S
H221   C220    0.930   1_556 S
C222   C224    1.510   1_554 S
C222   C223    1.386   1_554 S
C223   C220    1.402   1_556 S
C223   C228    1.522   .     S
C223   C222    1.386   1_556 S
C224   C222    1.510   1_556 S
C224   H225    0.961   .     S
C224   H226    0.960   1_556 S
C224   H227    0.961   1_556 S
H226   C224    0.960   1_554 S
H227   C224    0.961   1_554 S
C228   H229    0.960   .     S
C228   H230    0.961   1_556 S
C228   H231    0.959   .     S
H230   C228    0.961   1_554 S
Cu232  O234    1.951   .     S
Cu232  O239    1.996   .     S
Cu232  N242    1.992   .     S
O233   C246    1.251   .     S
O234   C246    1.281   .     S
O235   H236    0.820   .     S
O235   C247    1.327   .     S
O237   C247    1.223   .     S
N238   C243    1.357   .     S
N238   C244    1.366   .     S
O239   H240    0.856   .     S
O239   H241    0.855   .     S
N242   C243    1.348   .     S
N242   C245    1.363   .     S
C243   C248    1.465   .     S
C244   C245    1.367   .     S
C244   C247    1.466   .     S
C245   C246    1.466   .     S
C248   C249    1.386   .     S
C248   C251    1.392   .     S
C249   H250    0.929   .     S
C249   C253    1.386   .     S
C251   H252    0.931   .     S
C251   C255    1.390   .     S
C253   H254    0.930   .     S
C253   C256    1.402   .     S
C255   C257    1.510   .     S
C255   C256    1.386   .     S
C256   C261    1.522   .     S
C257   H258    0.961   .     S
C257   H259    0.960   .     S
C257   H260    0.961   .     S
C261   H262    0.960   .     S
C261   H263    0.961   .     S
C261   H264    0.959   .     S
Cu265  O267    1.951   .     S
Cu265  O272    1.996   .     S
Cu265  N275    1.992   .     S
Cu265  O468    2.362   .     S
Cu265  N469    1.952   .     S
O266   C279    1.251   .     S
O267   C279    1.281   .     S
O268   H269    0.820   .     S
O268   C280    1.327   .     S
O270   C280    1.223   .     S
O270   Cu397   2.362   .     S
N271   C276    1.357   .     S
N271   C277    1.366   .     S
N271   Cu397   1.952   .     S
O272   H273    0.856   .     S
O272   H274    0.855   1_556 S
H274   O272    0.855   1_554 S
N275   C276    1.348   .     S
N275   C278    1.363   .     S
C276   C281    1.465   .     S
C277   C278    1.367   .     S
C277   C280    1.466   .     S
C278   C279    1.466   .     S
C281   C282    1.386   .     S
C281   C284    1.392   .     S
C282   H283    0.929   .     S
C282   C286    1.386   .     S
C284   H285    0.931   .     S
C284   C288    1.390   .     S
C286   H287    0.930   .     S
C286   C289    1.402   .     S
C288   C290    1.510   .     S
C288   C289    1.386   .     S
C289   C294    1.522   .     S
C290   H291    0.961   .     S
C290   H292    0.960   .     S
C290   H293    0.961   .     S
C294   H295    0.960   .     S
C294   H296    0.961   .     S
C294   H297    0.959   .     S
Cu298  O300    1.951   .     S
Cu298  O305    1.996   .     S
Cu298  N308    1.992   .     S
Cu298  O501    2.362   .     S
Cu298  N502    1.952   .     S
O299   C312    1.251   .     S
O300   C312    1.281   .     S
O301   H302    0.820   .     S
O301   C313    1.327   .     S
O303   C313    1.223   .     S
O303   Cu430   2.362   .     S
N304   C309    1.357   .     S
N304   C310    1.366   .     S
N304   Cu430   1.952   .     S
O305   H306    0.856   .     S
O305   H307    0.855   .     S
N308   C309    1.348   .     S
N308   C311    1.363   .     S
C309   C314    1.465   .     S
C310   C311    1.367   .     S
C310   C313    1.466   .     S
C311   C312    1.466   .     S
C314   C315    1.386   .     S
C314   C317    1.392   .     S
C315   H316    0.929   .     S
C315   C319    1.386   .     S
C317   H318    0.931   .     S
C317   C321    1.390   .     S
C319   H320    0.930   .     S
C319   C322    1.402   .     S
C321   C323    1.510   .     S
C321   C322    1.386   .     S
C322   C327    1.522   .     S
C323   H324    0.961   .     S
C323   H325    0.960   .     S
C323   H326    0.961   .     S
C327   H328    0.960   .     S
C327   H329    0.961   .     S
C327   H330    0.959   .     S
Cu331  O333    1.951   .     S
Cu331  O338    1.996   .     S
Cu331  N341    1.992   .     S
Cu331  O402    2.362   .     S
Cu331  N403    1.952   .     S
O332   C345    1.251   .     S
O333   C345    1.281   .     S
O334   H335    0.820   .     S
O334   C346    1.327   .     S
O336   C346    1.223   .     S
O336   Cu463   2.362   .     S
N337   C342    1.357   .     S
N337   C343    1.366   .     S
N337   Cu463   1.952   .     S
O338   H339    0.856   .     S
O338   H340    0.855   .     S
N341   C342    1.348   .     S
N341   C344    1.363   .     S
C342   C347    1.465   .     S
C343   C344    1.367   .     S
C343   C346    1.466   .     S
C344   C345    1.466   .     S
C347   C348    1.386   .     S
C347   C350    1.392   .     S
C348   H349    0.929   .     S
C348   C352    1.386   .     S
C350   H351    0.931   .     S
C350   C354    1.390   .     S
C352   H353    0.930   .     S
C352   C355    1.402   .     S
C354   C356    1.510   .     S
C354   C355    1.386   .     S
C355   C360    1.522   .     S
C356   H357    0.961   .     S
C356   H358    0.960   .     S
C356   H359    0.961   .     S
C360   H361    0.960   .     S
C360   H362    0.961   .     S
C360   H363    0.959   .     S
Cu364  O366    1.951   .     S
Cu364  O371    1.996   .     S
Cu364  N374    1.992   .     S
Cu364  O435    2.362   .     S
Cu364  N436    1.952   .     S
O365   C378    1.251   .     S
O366   C378    1.281   .     S
O367   H368    0.820   .     S
O367   C379    1.327   .     S
O369   C379    1.223   .     S
O369   Cu496   2.362   .     S
N370   C375    1.357   .     S
N370   C376    1.366   .     S
N370   Cu496   1.952   .     S
O371   H372    0.856   .     S
O371   H373    0.855   1_556 S
H373   O371    0.855   1_554 S
N374   C375    1.348   .     S
N374   C377    1.363   .     S
C375   C380    1.465   .     S
C376   C377    1.367   .     S
C376   C379    1.466   .     S
C377   C378    1.466   .     S
C380   C381    1.386   .     S
C380   C383    1.392   .     S
C381   H382    0.929   .     S
C381   C385    1.386   .     S
C383   H384    0.931   .     S
C383   C387    1.390   .     S
C385   H386    0.930   .     S
C385   C388    1.402   .     S
C387   C389    1.510   .     S
C387   C388    1.386   .     S
C388   C393    1.522   .     S
C389   H390    0.961   .     S
C389   H391    0.960   .     S
C389   H392    0.961   .     S
C393   H394    0.960   .     S
C393   H395    0.961   .     S
C393   H396    0.959   .     S
Cu397  O399    1.951   .     S
Cu397  O404    1.996   .     S
Cu397  N407    1.992   .     S
O398   C411    1.251   .     S
O399   C411    1.281   .     S
O400   H401    0.820   .     S
O400   C412    1.327   .     S
O402   C412    1.223   .     S
N403   C408    1.357   .     S
N403   C409    1.366   .     S
O404   H405    0.856   .     S
O404   H406    0.855   .     S
N407   C408    1.348   .     S
N407   C410    1.363   .     S
C408   C413    1.465   .     S
C409   C410    1.367   .     S
C409   C412    1.466   .     S
C410   C411    1.466   .     S
C413   C414    1.386   .     S
C413   C416    1.392   .     S
C414   H415    0.929   .     S
C414   C418    1.386   .     S
C416   H417    0.931   .     S
C416   C420    1.390   .     S
C418   H419    0.930   .     S
C418   C421    1.402   .     S
C420   C422    1.510   .     S
C420   C421    1.386   .     S
C421   C426    1.522   .     S
C422   H423    0.961   .     S
C422   H424    0.960   .     S
C422   H425    0.961   .     S
C426   H427    0.960   .     S
C426   H428    0.961   .     S
C426   H429    0.959   .     S
Cu430  O432    1.951   .     S
Cu430  O437    1.996   .     S
Cu430  N440    1.992   1_554 S
O431   C444    1.251   .     S
O432   C444    1.281   1_554 S
O433   H434    0.820   .     S
O433   C445    1.327   .     S
O435   C445    1.223   .     S
N436   C441    1.357   .     S
N436   C442    1.366   .     S
O437   H438    0.856   .     S
O437   H439    0.855   .     S
N440   Cu430   1.992   1_556 S
N440   C441    1.348   .     S
N440   C443    1.363   .     S
C441   C446    1.465   .     S
C442   C443    1.367   .     S
C442   C445    1.466   .     S
C443   C444    1.466   .     S
C444   O432    1.281   1_556 S
C446   C447    1.386   .     S
C446   C449    1.392   .     S
C447   H448    0.929   .     S
C447   C451    1.386   .     S
C449   H450    0.931   .     S
C449   C453    1.390   .     S
C451   H452    0.930   1_556 S
C451   C454    1.402   1_556 S
H452   C451    0.930   1_554 S
C453   C455    1.510   1_556 S
C453   C454    1.386   1_556 S
C454   C451    1.402   1_554 S
C454   C459    1.522   .     S
C454   C453    1.386   1_554 S
C455   C453    1.510   1_554 S
C455   H456    0.961   .     S
C455   H457    0.960   1_554 S
C455   H458    0.961   1_554 S
H457   C455    0.960   1_556 S
H458   C455    0.961   1_556 S
C459   H460    0.960   .     S
C459   H461    0.961   1_554 S
C459   H462    0.959   .     S
H461   C459    0.961   1_556 S
Cu463  O465    1.951   .     S
Cu463  O470    1.996   .     S
Cu463  N473    1.992   1_554 S
O464   C477    1.251   .     S
O465   C477    1.281   1_554 S
O466   H467    0.820   .     S
O466   C478    1.327   .     S
O468   C478    1.223   .     S
N469   C474    1.357   .     S
N469   C475    1.366   .     S
O470   H471    0.856   .     S
O470   H472    0.855   .     S
N473   Cu463   1.992   1_556 S
N473   C474    1.348   .     S
N473   C476    1.363   .     S
C474   C479    1.465   .     S
C475   C476    1.367   .     S
C475   C478    1.466   .     S
C476   C477    1.466   .     S
C477   O465    1.281   1_556 S
C479   C480    1.386   .     S
C479   C482    1.392   .     S
C480   H481    0.929   .     S
C480   C484    1.386   .     S
C482   H483    0.931   .     S
C482   C486    1.390   .     S
C484   H485    0.930   1_556 S
C484   C487    1.402   1_556 S
H485   C484    0.930   1_554 S
C486   C488    1.510   1_556 S
C486   C487    1.386   1_556 S
C487   C484    1.402   1_554 S
C487   C492    1.522   .     S
C487   C486    1.386   1_554 S
C488   C486    1.510   1_554 S
C488   H489    0.961   .     S
C488   H490    0.960   1_554 S
C488   H491    0.961   1_554 S
H490   C488    0.960   1_556 S
H491   C488    0.961   1_556 S
C492   H493    0.960   .     S
C492   H494    0.961   1_554 S
C492   H495    0.959   .     S
H494   C492    0.961   1_556 S
Cu496  O498    1.951   .     S
Cu496  O503    1.996   .     S
Cu496  N506    1.992   .     S
O497   C510    1.251   .     S
O498   C510    1.281   .     S
O499   H500    0.820   .     S
O499   C511    1.327   .     S
O501   C511    1.223   .     S
N502   C507    1.357   .     S
N502   C508    1.366   .     S
O503   H504    0.856   .     S
O503   H505    0.855   .     S
N506   C507    1.348   .     S
N506   C509    1.363   .     S
C507   C512    1.465   .     S
C508   C509    1.367   .     S
C508   C511    1.466   .     S
C509   C510    1.466   .     S
C512   C513    1.386   .     S
C512   C515    1.392   .     S
C513   H514    0.929   .     S
C513   C517    1.386   .     S
C515   H516    0.931   .     S
C515   C519    1.390   .     S
C517   H518    0.930   .     S
C517   C520    1.402   .     S
C519   C521    1.510   .     S
C519   C520    1.386   .     S
C520   C525    1.522   .     S
C521   H522    0.961   .     S
C521   H523    0.960   .     S
C521   H524    0.961   .     S
C525   H526    0.960   .     S
C525   H527    0.961   .     S
C525   H528    0.959   .     S
