data_IKOTUZ_FSR
_audit_creation_date              2024-06-11
_audit_creation_method            'Materials Studio'
_symmetry_space_group_name_H-M    'P1'
_symmetry_Int_Tables_number       1
_symmetry_cell_setting            triclinic
loop_
_symmetry_equiv_pos_as_xyz
  x,y,z
_cell_length_a                    48.8320
_cell_length_b                    48.8320
_cell_length_c                    8.4834
_cell_angle_alpha                 90.0000
_cell_angle_beta                  90.0000
_cell_angle_gamma                 120.0000
loop_
_atom_site_label
_atom_site_type_symbol
_atom_site_fract_x
_atom_site_fract_y
_atom_site_fract_z
_atom_site_U_iso_or_equiv
_atom_site_adp_type
_atom_site_occupancy
K1     K     0.40824   0.91404   0.23740   0.00000  Uiso   1.00
Sm2    Sm    0.48613   0.99175   0.54866   0.00000  Uiso   1.00
S3     S     0.42463   0.90999   0.60525   0.00000  Uiso   1.00
S4     S     0.24365   0.91847   0.76822   0.00000  Uiso   1.00
O5     O     0.46616   0.97207   0.81030   0.00000  Uiso   1.00
O6     O     0.44750   0.95655   0.04850   0.00000  Uiso   1.00
O7     O     0.44462   0.93776   0.50690   0.00000  Uiso   1.00
O8     O     0.40400   0.88309   0.50630   0.00000  Uiso   1.00
O9     O     0.44237   0.90400   0.72070   0.00000  Uiso   1.00
O10    O     0.21221   0.85286   0.38230   0.00000  Uiso   1.00
O11    O     0.19361   0.85085   0.62020   0.00000  Uiso   1.00
O12    O     0.22789   0.92322   0.63710   0.00000  Uiso   1.00
O13    O     0.22163   0.89550   0.88290   0.00000  Uiso   1.00
O14    O     0.26755   0.94725   0.84410   0.00000  Uiso   1.00
C15    C     0.40965   0.93963   0.84270   0.00000  Uiso   1.00
C16    C     0.39915   0.91960   0.71330   0.00000  Uiso   1.00
C17    C     0.36812   0.90654   0.66330   0.00000  Uiso   1.00
H18    H     0.36160   0.89410   0.57300   0.00000  Uiso   1.00
C19    C     0.34626   0.91187   0.74710   0.00000  Uiso   1.00
C20    C     0.35665   0.92992   0.87940   0.00000  Uiso   1.00
H21    H     0.34250   0.93290   0.93960   0.00000  Uiso   1.00
C22    C     0.38797   0.94392   0.92640   0.00000  Uiso   1.00
H23    H     0.39450   0.95650   0.01640   0.00000  Uiso   1.00
C24    C     0.44287   0.95660   0.90510   0.00000  Uiso   1.00
C25    C     0.31322   0.89841   0.68870   0.00000  Uiso   1.00
C26    C     0.29868   0.87241   0.59180   0.00000  Uiso   1.00
H27    H     0.30970   0.86220   0.56220   0.00000  Uiso   1.00
C28    C     0.26836   0.86107   0.53740   0.00000  Uiso   1.00
H29    H     0.26000   0.84460   0.46460   0.00000  Uiso   1.00
C30    C     0.25019   0.87352   0.58850   0.00000  Uiso   1.00
C31    C     0.26358   0.89911   0.68910   0.00000  Uiso   1.00
C32    C     0.29555   0.91227   0.73460   0.00000  Uiso   1.00
H33    H     0.30490   0.93050   0.79610   0.00000  Uiso   1.00
C34    C     0.21660   0.85863   0.52770   0.00000  Uiso   1.00
O35    O     0.50005   0.04471   0.62130   0.00000  Uiso   1.00
K36    K     0.07491   0.24737   0.57073   0.00000  Uiso   1.00
Sm37   Sm    0.15280   0.32508   0.88199   0.00000  Uiso   1.00
S38    S     0.09130   0.24332   0.93858   0.00000  Uiso   1.00
S39    S     0.91032   0.25180   0.10155   0.00000  Uiso   1.00
O40    O     0.13283   0.30540   0.14363   0.00000  Uiso   1.00
O41    O     0.11417   0.28988   0.38183   0.00000  Uiso   1.00
O42    O     0.11129   0.27109   0.84023   0.00000  Uiso   1.00
O43    O     0.07067   0.21642   0.83963   0.00000  Uiso   1.00
O44    O     0.10904   0.23733   0.05403   0.00000  Uiso   1.00
O45    O     0.87888   0.18619   0.71563   0.00000  Uiso   1.00
O46    O     0.86028   0.18418   0.95353   0.00000  Uiso   1.00
O47    O     0.89456   0.25655   0.97043   0.00000  Uiso   1.00
O48    O     0.88830   0.22883   0.21623   0.00000  Uiso   1.00
O49    O     0.93422   0.28058   0.17743   0.00000  Uiso   1.00
C50    C     0.07632   0.27296   0.17603   0.00000  Uiso   1.00
C51    C     0.06582   0.25293   0.04663   0.00000  Uiso   1.00
C52    C     0.03479   0.23987   0.99663   0.00000  Uiso   1.00
H53    H     0.02827   0.22743   0.90633   0.00000  Uiso   1.00
C54    C     0.01293   0.24520   0.08043   0.00000  Uiso   1.00
C55    C     0.02332   0.26325   0.21273   0.00000  Uiso   1.00
H56    H     0.00917   0.26623   0.27293   0.00000  Uiso   1.00
C57    C     0.05464   0.27725   0.25973   0.00000  Uiso   1.00
H58    H     0.06117   0.28983   0.34973   0.00000  Uiso   1.00
C59    C     0.10954   0.28993   0.23843   0.00000  Uiso   1.00
C60    C     0.97989   0.23174   0.02203   0.00000  Uiso   1.00
C61    C     0.96535   0.20574   0.92513   0.00000  Uiso   1.00
H62    H     0.97637   0.19553   0.89553   0.00000  Uiso   1.00
C63    C     0.93503   0.19440   0.87073   0.00000  Uiso   1.00
H64    H     0.92667   0.17793   0.79793   0.00000  Uiso   1.00
C65    C     0.91686   0.20685   0.92183   0.00000  Uiso   1.00
C66    C     0.93025   0.23244   0.02243   0.00000  Uiso   1.00
C67    C     0.96222   0.24560   0.06793   0.00000  Uiso   1.00
H68    H     0.97157   0.26383   0.12943   0.00000  Uiso   1.00
C69    C     0.88327   0.19196   0.86103   0.00000  Uiso   1.00
O70    O     0.16672   0.37804   0.95463   0.00000  Uiso   1.00
K71    K     0.74157   0.58071   0.90407   0.00000  Uiso   1.00
Sm72   Sm    0.81946   0.65842   0.21533   0.00000  Uiso   1.00
S73    S     0.75796   0.57666   0.27192   0.00000  Uiso   1.00
S74    S     0.57698   0.58514   0.43489   0.00000  Uiso   1.00
O75    O     0.79949   0.63874   0.47697   0.00000  Uiso   1.00
O76    O     0.78083   0.62322   0.71517   0.00000  Uiso   1.00
O77    O     0.77795   0.60443   0.17357   0.00000  Uiso   1.00
O78    O     0.73733   0.54976   0.17297   0.00000  Uiso   1.00
O79    O     0.77570   0.57067   0.38737   0.00000  Uiso   1.00
O80    O     0.54554   0.51953   0.04897   0.00000  Uiso   1.00
O81    O     0.52694   0.51752   0.28687   0.00000  Uiso   1.00
O82    O     0.56122   0.58989   0.30377   0.00000  Uiso   1.00
O83    O     0.55496   0.56217   0.54957   0.00000  Uiso   1.00
O84    O     0.60088   0.61392   0.51077   0.00000  Uiso   1.00
C85    C     0.74298   0.60630   0.50937   0.00000  Uiso   1.00
C86    C     0.73248   0.58627   0.37997   0.00000  Uiso   1.00
C87    C     0.70145   0.57321   0.32997   0.00000  Uiso   1.00
H88    H     0.69493   0.56077   0.23967   0.00000  Uiso   1.00
C89    C     0.67959   0.57854   0.41377   0.00000  Uiso   1.00
C90    C     0.68998   0.59659   0.54607   0.00000  Uiso   1.00
H91    H     0.67583   0.59957   0.60627   0.00000  Uiso   1.00
C92    C     0.72130   0.61059   0.59307   0.00000  Uiso   1.00
H93    H     0.72783   0.62317   0.68307   0.00000  Uiso   1.00
C94    C     0.77620   0.62327   0.57177   0.00000  Uiso   1.00
C95    C     0.64655   0.56508   0.35537   0.00000  Uiso   1.00
C96    C     0.63201   0.53908   0.25847   0.00000  Uiso   1.00
H97    H     0.64303   0.52887   0.22887   0.00000  Uiso   1.00
C98    C     0.60169   0.52774   0.20407   0.00000  Uiso   1.00
H99    H     0.59333   0.51127   0.13127   0.00000  Uiso   1.00
C100   C     0.58352   0.54019   0.25517   0.00000  Uiso   1.00
C101   C     0.59691   0.56578   0.35577   0.00000  Uiso   1.00
C102   C     0.62888   0.57894   0.40127   0.00000  Uiso   1.00
H103   H     0.63823   0.59717   0.46277   0.00000  Uiso   1.00
C104   C     0.54993   0.52530   0.19437   0.00000  Uiso   1.00
O105   O     0.83338   0.71138   0.28797   0.00000  Uiso   1.00
K106   K     0.08596   0.49420   0.23740   0.00000  Uiso   1.00
Sm107  Sm    0.00825   0.49438   0.54866   0.00000  Uiso   1.00
S108   S     0.09001   0.51464   0.60525   0.00000  Uiso   1.00
S109   S     0.08153   0.32518   0.76822   0.00000  Uiso   1.00
O110   O     0.02793   0.49409   0.81030   0.00000  Uiso   1.00
O111   O     0.04345   0.49095   0.04850   0.00000  Uiso   1.00
O112   O     0.06224   0.50686   0.50690   0.00000  Uiso   1.00
O113   O     0.11691   0.52091   0.50630   0.00000  Uiso   1.00
O114   O     0.09600   0.53837   0.72070   0.00000  Uiso   1.00
O115   O     0.14714   0.35935   0.38230   0.00000  Uiso   1.00
O116   O     0.14915   0.34276   0.62020   0.00000  Uiso   1.00
O117   O     0.07678   0.30467   0.63710   0.00000  Uiso   1.00
O118   O     0.10450   0.32613   0.88290   0.00000  Uiso   1.00
O119   O     0.05275   0.32030   0.84410   0.00000  Uiso   1.00
C120   C     0.06037   0.47002   0.84270   0.00000  Uiso   1.00
C121   C     0.08040   0.47955   0.71330   0.00000  Uiso   1.00
C122   C     0.09346   0.46158   0.66330   0.00000  Uiso   1.00
H123   H     0.10590   0.46750   0.57300   0.00000  Uiso   1.00
C124   C     0.08813   0.43439   0.74710   0.00000  Uiso   1.00
C125   C     0.07008   0.42673   0.87940   0.00000  Uiso   1.00
H126   H     0.06710   0.40960   0.93960   0.00000  Uiso   1.00
C127   C     0.05608   0.44405   0.92640   0.00000  Uiso   1.00
H128   H     0.04350   0.43800   0.01640   0.00000  Uiso   1.00
C129   C     0.04340   0.48627   0.90510   0.00000  Uiso   1.00
C130   C     0.10159   0.41481   0.68870   0.00000  Uiso   1.00
C131   C     0.12759   0.42627   0.59180   0.00000  Uiso   1.00
H132   H     0.13780   0.44750   0.56220   0.00000  Uiso   1.00
C133   C     0.13893   0.40729   0.53740   0.00000  Uiso   1.00
H134   H     0.15540   0.41540   0.46460   0.00000  Uiso   1.00
C135   C     0.12648   0.37667   0.58850   0.00000  Uiso   1.00
C136   C     0.10089   0.36447   0.68910   0.00000  Uiso   1.00
C137   C     0.08773   0.38328   0.73460   0.00000  Uiso   1.00
H138   H     0.06950   0.37440   0.79610   0.00000  Uiso   1.00
C139   C     0.14137   0.35797   0.52770   0.00000  Uiso   1.00
O140   O     0.95529   0.45534   0.62130   0.00000  Uiso   1.00
K141   K     0.75263   0.82753   0.57073   0.00000  Uiso   1.00
Sm142  Sm    0.67492   0.82771   0.88199   0.00000  Uiso   1.00
S143   S     0.75668   0.84797   0.93858   0.00000  Uiso   1.00
S144   S     0.74820   0.65851   0.10155   0.00000  Uiso   1.00
O145   O     0.69460   0.82742   0.14363   0.00000  Uiso   1.00
O146   O     0.71012   0.82428   0.38183   0.00000  Uiso   1.00
O147   O     0.72891   0.84019   0.84023   0.00000  Uiso   1.00
O148   O     0.78358   0.85424   0.83963   0.00000  Uiso   1.00
O149   O     0.76267   0.87170   0.05403   0.00000  Uiso   1.00
O150   O     0.81381   0.69268   0.71563   0.00000  Uiso   1.00
O151   O     0.81582   0.67609   0.95353   0.00000  Uiso   1.00
O152   O     0.74345   0.63800   0.97043   0.00000  Uiso   1.00
O153   O     0.77117   0.65946   0.21623   0.00000  Uiso   1.00
O154   O     0.71942   0.65363   0.17743   0.00000  Uiso   1.00
C155   C     0.72704   0.80335   0.17603   0.00000  Uiso   1.00
C156   C     0.74707   0.81288   0.04663   0.00000  Uiso   1.00
C157   C     0.76013   0.79491   0.99663   0.00000  Uiso   1.00
H158   H     0.77257   0.80083   0.90633   0.00000  Uiso   1.00
C159   C     0.75480   0.76772   0.08043   0.00000  Uiso   1.00
C160   C     0.73675   0.76006   0.21273   0.00000  Uiso   1.00
H161   H     0.73377   0.74293   0.27293   0.00000  Uiso   1.00
C162   C     0.72275   0.77738   0.25973   0.00000  Uiso   1.00
H163   H     0.71017   0.77133   0.34973   0.00000  Uiso   1.00
C164   C     0.71007   0.81960   0.23843   0.00000  Uiso   1.00
C165   C     0.76826   0.74814   0.02203   0.00000  Uiso   1.00
C166   C     0.79426   0.75960   0.92513   0.00000  Uiso   1.00
H167   H     0.80447   0.78083   0.89553   0.00000  Uiso   1.00
C168   C     0.80560   0.74062   0.87073   0.00000  Uiso   1.00
H169   H     0.82207   0.74873   0.79793   0.00000  Uiso   1.00
C170   C     0.79315   0.71000   0.92183   0.00000  Uiso   1.00
C171   C     0.76756   0.69780   0.02243   0.00000  Uiso   1.00
C172   C     0.75440   0.71661   0.06793   0.00000  Uiso   1.00
H173   H     0.73617   0.70773   0.12943   0.00000  Uiso   1.00
C174   C     0.80804   0.69130   0.86103   0.00000  Uiso   1.00
O175   O     0.62196   0.78867   0.95463   0.00000  Uiso   1.00
K176   K     0.41929   0.16087   0.90407   0.00000  Uiso   1.00
Sm177  Sm    0.34158   0.16105   0.21533   0.00000  Uiso   1.00
S178   S     0.42334   0.18131   0.27192   0.00000  Uiso   1.00
S179   S     0.41486   0.99185   0.43489   0.00000  Uiso   1.00
O180   O     0.36126   0.16076   0.47697   0.00000  Uiso   1.00
O181   O     0.37678   0.15762   0.71517   0.00000  Uiso   1.00
O182   O     0.39557   0.17353   0.17357   0.00000  Uiso   1.00
O183   O     0.45024   0.18758   0.17297   0.00000  Uiso   1.00
O184   O     0.42933   0.20504   0.38737   0.00000  Uiso   1.00
O185   O     0.48047   0.02602   0.04897   0.00000  Uiso   1.00
O186   O     0.48248   0.00943   0.28687   0.00000  Uiso   1.00
O187   O     0.41011   0.97134   0.30377   0.00000  Uiso   1.00
O188   O     0.43783   0.99280   0.54957   0.00000  Uiso   1.00
O189   O     0.38608   0.98697   0.51077   0.00000  Uiso   1.00
C190   C     0.39370   0.13669   0.50937   0.00000  Uiso   1.00
C191   C     0.41373   0.14622   0.37997   0.00000  Uiso   1.00
C192   C     0.42679   0.12825   0.32997   0.00000  Uiso   1.00
H193   H     0.43923   0.13417   0.23967   0.00000  Uiso   1.00
C194   C     0.42146   0.10106   0.41377   0.00000  Uiso   1.00
C195   C     0.40341   0.09340   0.54607   0.00000  Uiso   1.00
H196   H     0.40043   0.07627   0.60627   0.00000  Uiso   1.00
C197   C     0.38941   0.11072   0.59307   0.00000  Uiso   1.00
H198   H     0.37683   0.10467   0.68307   0.00000  Uiso   1.00
C199   C     0.37673   0.15294   0.57177   0.00000  Uiso   1.00
C200   C     0.43492   0.08148   0.35537   0.00000  Uiso   1.00
C201   C     0.46092   0.09294   0.25847   0.00000  Uiso   1.00
H202   H     0.47113   0.11417   0.22887   0.00000  Uiso   1.00
C203   C     0.47226   0.07396   0.20407   0.00000  Uiso   1.00
H204   H     0.48873   0.08207   0.13127   0.00000  Uiso   1.00
C205   C     0.45981   0.04334   0.25517   0.00000  Uiso   1.00
C206   C     0.43422   0.03114   0.35577   0.00000  Uiso   1.00
C207   C     0.42106   0.04995   0.40127   0.00000  Uiso   1.00
H208   H     0.40283   0.04107   0.46277   0.00000  Uiso   1.00
C209   C     0.47470   0.02464   0.19437   0.00000  Uiso   1.00
O210   O     0.28862   0.12201   0.28797   0.00000  Uiso   1.00
K211   K     0.50580   0.59176   0.23740   0.00000  Uiso   1.00
Sm212  Sm    0.50562   0.51387   0.54866   0.00000  Uiso   1.00
S213   S     0.48536   0.57537   0.60525   0.00000  Uiso   1.00
S214   S     0.67482   0.75635   0.76822   0.00000  Uiso   1.00
O215   O     0.50591   0.53384   0.81030   0.00000  Uiso   1.00
O216   O     0.50905   0.55250   0.04850   0.00000  Uiso   1.00
O217   O     0.49314   0.55538   0.50690   0.00000  Uiso   1.00
O218   O     0.47909   0.59600   0.50630   0.00000  Uiso   1.00
O219   O     0.46163   0.55763   0.72070   0.00000  Uiso   1.00
O220   O     0.64065   0.78779   0.38230   0.00000  Uiso   1.00
O221   O     0.65724   0.80639   0.62020   0.00000  Uiso   1.00
O222   O     0.69533   0.77211   0.63710   0.00000  Uiso   1.00
O223   O     0.67387   0.77837   0.88290   0.00000  Uiso   1.00
O224   O     0.67970   0.73245   0.84410   0.00000  Uiso   1.00
C225   C     0.52998   0.59035   0.84270   0.00000  Uiso   1.00
C226   C     0.52045   0.60085   0.71330   0.00000  Uiso   1.00
C227   C     0.53842   0.63188   0.66330   0.00000  Uiso   1.00
H228   H     0.53250   0.63840   0.57300   0.00000  Uiso   1.00
C229   C     0.56561   0.65374   0.74710   0.00000  Uiso   1.00
C230   C     0.57327   0.64335   0.87940   0.00000  Uiso   1.00
H231   H     0.59040   0.65750   0.93960   0.00000  Uiso   1.00
C232   C     0.55595   0.61203   0.92640   0.00000  Uiso   1.00
H233   H     0.56200   0.60550   0.01640   0.00000  Uiso   1.00
C234   C     0.51373   0.55713   0.90510   0.00000  Uiso   1.00
C235   C     0.58519   0.68678   0.68870   0.00000  Uiso   1.00
C236   C     0.57373   0.70132   0.59180   0.00000  Uiso   1.00
H237   H     0.55250   0.69030   0.56220   0.00000  Uiso   1.00
C238   C     0.59271   0.73164   0.53740   0.00000  Uiso   1.00
H239   H     0.58460   0.74000   0.46460   0.00000  Uiso   1.00
C240   C     0.62333   0.74981   0.58850   0.00000  Uiso   1.00
C241   C     0.63553   0.73642   0.68910   0.00000  Uiso   1.00
C242   C     0.61672   0.70445   0.73460   0.00000  Uiso   1.00
H243   H     0.62560   0.69510   0.79610   0.00000  Uiso   1.00
C244   C     0.64203   0.78340   0.52770   0.00000  Uiso   1.00
O245   O     0.54466   0.49995   0.62130   0.00000  Uiso   1.00
K246   K     0.17247   0.92509   0.57073   0.00000  Uiso   1.00
Sm247  Sm    0.17229   0.84720   0.88199   0.00000  Uiso   1.00
S248   S     0.15203   0.90870   0.93858   0.00000  Uiso   1.00
S249   S     0.34149   0.08968   0.10155   0.00000  Uiso   1.00
O250   O     0.17258   0.86717   0.14363   0.00000  Uiso   1.00
O251   O     0.17572   0.88583   0.38183   0.00000  Uiso   1.00
O252   O     0.15981   0.88871   0.84023   0.00000  Uiso   1.00
O253   O     0.14576   0.92933   0.83963   0.00000  Uiso   1.00
O254   O     0.12830   0.89096   0.05403   0.00000  Uiso   1.00
O255   O     0.30732   0.12112   0.71563   0.00000  Uiso   1.00
O256   O     0.32391   0.13972   0.95353   0.00000  Uiso   1.00
O257   O     0.36200   0.10544   0.97043   0.00000  Uiso   1.00
O258   O     0.34054   0.11170   0.21623   0.00000  Uiso   1.00
O259   O     0.34637   0.06578   0.17743   0.00000  Uiso   1.00
C260   C     0.19665   0.92368   0.17603   0.00000  Uiso   1.00
C261   C     0.18712   0.93418   0.04663   0.00000  Uiso   1.00
C262   C     0.20509   0.96521   0.99663   0.00000  Uiso   1.00
H263   H     0.19917   0.97173   0.90633   0.00000  Uiso   1.00
C264   C     0.23228   0.98707   0.08043   0.00000  Uiso   1.00
C265   C     0.23994   0.97668   0.21273   0.00000  Uiso   1.00
H266   H     0.25707   0.99083   0.27293   0.00000  Uiso   1.00
C267   C     0.22262   0.94536   0.25973   0.00000  Uiso   1.00
H268   H     0.22867   0.93883   0.34973   0.00000  Uiso   1.00
C269   C     0.18040   0.89046   0.23843   0.00000  Uiso   1.00
C270   C     0.25186   0.02011   0.02203   0.00000  Uiso   1.00
C271   C     0.24040   0.03465   0.92513   0.00000  Uiso   1.00
H272   H     0.21917   0.02363   0.89553   0.00000  Uiso   1.00
C273   C     0.25938   0.06497   0.87073   0.00000  Uiso   1.00
H274   H     0.25127   0.07333   0.79793   0.00000  Uiso   1.00
C275   C     0.29000   0.08314   0.92183   0.00000  Uiso   1.00
C276   C     0.30220   0.06975   0.02243   0.00000  Uiso   1.00
C277   C     0.28339   0.03778   0.06793   0.00000  Uiso   1.00
H278   H     0.29227   0.02843   0.12943   0.00000  Uiso   1.00
C279   C     0.30870   0.11673   0.86103   0.00000  Uiso   1.00
O280   O     0.21133   0.83328   0.95463   0.00000  Uiso   1.00
K281   K     0.83913   0.25843   0.90407   0.00000  Uiso   1.00
Sm282  Sm    0.83895   0.18054   0.21533   0.00000  Uiso   1.00
S283   S     0.81869   0.24204   0.27192   0.00000  Uiso   1.00
S284   S     0.00815   0.42302   0.43489   0.00000  Uiso   1.00
O285   O     0.83924   0.20051   0.47697   0.00000  Uiso   1.00
O286   O     0.84238   0.21917   0.71517   0.00000  Uiso   1.00
O287   O     0.82647   0.22205   0.17357   0.00000  Uiso   1.00
O288   O     0.81242   0.26267   0.17297   0.00000  Uiso   1.00
O289   O     0.79496   0.22430   0.38737   0.00000  Uiso   1.00
O290   O     0.97398   0.45446   0.04897   0.00000  Uiso   1.00
O291   O     0.99057   0.47306   0.28687   0.00000  Uiso   1.00
O292   O     0.02866   0.43878   0.30377   0.00000  Uiso   1.00
O293   O     0.00720   0.44504   0.54957   0.00000  Uiso   1.00
O294   O     0.01303   0.39912   0.51077   0.00000  Uiso   1.00
C295   C     0.86331   0.25702   0.50937   0.00000  Uiso   1.00
C296   C     0.85378   0.26752   0.37997   0.00000  Uiso   1.00
C297   C     0.87175   0.29855   0.32997   0.00000  Uiso   1.00
H298   H     0.86583   0.30507   0.23967   0.00000  Uiso   1.00
C299   C     0.89894   0.32041   0.41377   0.00000  Uiso   1.00
C300   C     0.90660   0.31002   0.54607   0.00000  Uiso   1.00
H301   H     0.92373   0.32417   0.60627   0.00000  Uiso   1.00
C302   C     0.88928   0.27870   0.59307   0.00000  Uiso   1.00
H303   H     0.89533   0.27217   0.68307   0.00000  Uiso   1.00
C304   C     0.84706   0.22380   0.57177   0.00000  Uiso   1.00
C305   C     0.91852   0.35345   0.35537   0.00000  Uiso   1.00
C306   C     0.90706   0.36799   0.25847   0.00000  Uiso   1.00
H307   H     0.88583   0.35697   0.22887   0.00000  Uiso   1.00
C308   C     0.92604   0.39831   0.20407   0.00000  Uiso   1.00
H309   H     0.91793   0.40667   0.13127   0.00000  Uiso   1.00
C310   C     0.95666   0.41648   0.25517   0.00000  Uiso   1.00
C311   C     0.96886   0.40309   0.35577   0.00000  Uiso   1.00
C312   C     0.95005   0.37112   0.40127   0.00000  Uiso   1.00
H313   H     0.95893   0.36177   0.46277   0.00000  Uiso   1.00
C314   C     0.97536   0.45007   0.19437   0.00000  Uiso   1.00
O315   O     0.87799   0.16662   0.28797   0.00000  Uiso   1.00
K316   K     0.08596   0.59176   0.73740   0.00000  Uiso   1.00
Sm317  Sm    0.00825   0.51387   0.04866   0.00000  Uiso   1.00
S318   S     0.09001   0.57537   0.10525   0.00000  Uiso   1.00
S319   S     0.08153   0.75635   0.26822   0.00000  Uiso   1.00
O320   O     0.02793   0.53384   0.31030   0.00000  Uiso   1.00
O321   O     0.04345   0.55250   0.54850   0.00000  Uiso   1.00
O322   O     0.06224   0.55538   0.00690   0.00000  Uiso   1.00
O323   O     0.11691   0.59600   0.00630   0.00000  Uiso   1.00
O324   O     0.09600   0.55763   0.22070   0.00000  Uiso   1.00
O325   O     0.14714   0.78779   0.88230   0.00000  Uiso   1.00
O326   O     0.14915   0.80639   0.12020   0.00000  Uiso   1.00
O327   O     0.07678   0.77211   0.13710   0.00000  Uiso   1.00
O328   O     0.10450   0.77837   0.38290   0.00000  Uiso   1.00
O329   O     0.05275   0.73245   0.34410   0.00000  Uiso   1.00
C330   C     0.06037   0.59035   0.34270   0.00000  Uiso   1.00
C331   C     0.08040   0.60085   0.21330   0.00000  Uiso   1.00
C332   C     0.09346   0.63188   0.16330   0.00000  Uiso   1.00
H333   H     0.10590   0.63840   0.07300   0.00000  Uiso   1.00
C334   C     0.08813   0.65374   0.24710   0.00000  Uiso   1.00
C335   C     0.07008   0.64335   0.37940   0.00000  Uiso   1.00
H336   H     0.06710   0.65750   0.43960   0.00000  Uiso   1.00
C337   C     0.05608   0.61203   0.42640   0.00000  Uiso   1.00
H338   H     0.04350   0.60550   0.51640   0.00000  Uiso   1.00
C339   C     0.04340   0.55713   0.40510   0.00000  Uiso   1.00
C340   C     0.10159   0.68678   0.18870   0.00000  Uiso   1.00
C341   C     0.12759   0.70132   0.09180   0.00000  Uiso   1.00
H342   H     0.13780   0.69030   0.06220   0.00000  Uiso   1.00
C343   C     0.13893   0.73164   0.03740   0.00000  Uiso   1.00
H344   H     0.15540   0.74000   0.96460   0.00000  Uiso   1.00
C345   C     0.12648   0.74981   0.08850   0.00000  Uiso   1.00
C346   C     0.10089   0.73642   0.18910   0.00000  Uiso   1.00
C347   C     0.08773   0.70445   0.23460   0.00000  Uiso   1.00
H348   H     0.06950   0.69510   0.29610   0.00000  Uiso   1.00
C349   C     0.14137   0.78340   0.02770   0.00000  Uiso   1.00
O350   O     0.95529   0.49995   0.12130   0.00000  Uiso   1.00
K351   K     0.75263   0.92509   0.07073   0.00000  Uiso   1.00
Sm352  Sm    0.67492   0.84720   0.38199   0.00000  Uiso   1.00
S353   S     0.75668   0.90870   0.43858   0.00000  Uiso   1.00
S354   S     0.74820   0.08968   0.60155   0.00000  Uiso   1.00
O355   O     0.69460   0.86717   0.64363   0.00000  Uiso   1.00
O356   O     0.71012   0.88583   0.88183   0.00000  Uiso   1.00
O357   O     0.72891   0.88871   0.34023   0.00000  Uiso   1.00
O358   O     0.78358   0.92933   0.33963   0.00000  Uiso   1.00
O359   O     0.76267   0.89096   0.55403   0.00000  Uiso   1.00
O360   O     0.81381   0.12112   0.21563   0.00000  Uiso   1.00
O361   O     0.81582   0.13972   0.45353   0.00000  Uiso   1.00
O362   O     0.74345   0.10544   0.47043   0.00000  Uiso   1.00
O363   O     0.77117   0.11170   0.71623   0.00000  Uiso   1.00
O364   O     0.71942   0.06578   0.67743   0.00000  Uiso   1.00
C365   C     0.72704   0.92368   0.67603   0.00000  Uiso   1.00
C366   C     0.74707   0.93418   0.54663   0.00000  Uiso   1.00
C367   C     0.76013   0.96521   0.49663   0.00000  Uiso   1.00
H368   H     0.77257   0.97173   0.40633   0.00000  Uiso   1.00
C369   C     0.75480   0.98707   0.58043   0.00000  Uiso   1.00
C370   C     0.73675   0.97668   0.71273   0.00000  Uiso   1.00
H371   H     0.73377   0.99083   0.77293   0.00000  Uiso   1.00
C372   C     0.72275   0.94536   0.75973   0.00000  Uiso   1.00
H373   H     0.71017   0.93883   0.84973   0.00000  Uiso   1.00
C374   C     0.71007   0.89046   0.73843   0.00000  Uiso   1.00
C375   C     0.76826   0.02011   0.52203   0.00000  Uiso   1.00
C376   C     0.79426   0.03465   0.42513   0.00000  Uiso   1.00
H377   H     0.80447   0.02363   0.39553   0.00000  Uiso   1.00
C378   C     0.80560   0.06497   0.37073   0.00000  Uiso   1.00
H379   H     0.82207   0.07333   0.29793   0.00000  Uiso   1.00
C380   C     0.79315   0.08314   0.42183   0.00000  Uiso   1.00
C381   C     0.76756   0.06975   0.52243   0.00000  Uiso   1.00
C382   C     0.75440   0.03778   0.56793   0.00000  Uiso   1.00
H383   H     0.73617   0.02843   0.62943   0.00000  Uiso   1.00
C384   C     0.80804   0.11673   0.36103   0.00000  Uiso   1.00
O385   O     0.62196   0.83328   0.45463   0.00000  Uiso   1.00
K386   K     0.41929   0.25843   0.40407   0.00000  Uiso   1.00
Sm387  Sm    0.34158   0.18054   0.71533   0.00000  Uiso   1.00
S388   S     0.42334   0.24204   0.77192   0.00000  Uiso   1.00
S389   S     0.41486   0.42302   0.93489   0.00000  Uiso   1.00
O390   O     0.36126   0.20051   0.97697   0.00000  Uiso   1.00
O391   O     0.37678   0.21917   0.21517   0.00000  Uiso   1.00
O392   O     0.39557   0.22205   0.67357   0.00000  Uiso   1.00
O393   O     0.45024   0.26267   0.67297   0.00000  Uiso   1.00
O394   O     0.42933   0.22430   0.88737   0.00000  Uiso   1.00
O395   O     0.48047   0.45446   0.54897   0.00000  Uiso   1.00
O396   O     0.48248   0.47306   0.78687   0.00000  Uiso   1.00
O397   O     0.41011   0.43878   0.80377   0.00000  Uiso   1.00
O398   O     0.43783   0.44504   0.04957   0.00000  Uiso   1.00
O399   O     0.38608   0.39912   0.01077   0.00000  Uiso   1.00
C400   C     0.39370   0.25702   0.00937   0.00000  Uiso   1.00
C401   C     0.41373   0.26752   0.87997   0.00000  Uiso   1.00
C402   C     0.42679   0.29855   0.82997   0.00000  Uiso   1.00
H403   H     0.43923   0.30507   0.73967   0.00000  Uiso   1.00
C404   C     0.42146   0.32041   0.91377   0.00000  Uiso   1.00
C405   C     0.40341   0.31002   0.04607   0.00000  Uiso   1.00
H406   H     0.40043   0.32417   0.10627   0.00000  Uiso   1.00
C407   C     0.38941   0.27870   0.09307   0.00000  Uiso   1.00
H408   H     0.37683   0.27217   0.18307   0.00000  Uiso   1.00
C409   C     0.37673   0.22380   0.07177   0.00000  Uiso   1.00
C410   C     0.43492   0.35345   0.85537   0.00000  Uiso   1.00
C411   C     0.46092   0.36799   0.75847   0.00000  Uiso   1.00
H412   H     0.47113   0.35697   0.72887   0.00000  Uiso   1.00
C413   C     0.47226   0.39831   0.70407   0.00000  Uiso   1.00
H414   H     0.48873   0.40667   0.63127   0.00000  Uiso   1.00
C415   C     0.45981   0.41648   0.75517   0.00000  Uiso   1.00
C416   C     0.43422   0.40309   0.85577   0.00000  Uiso   1.00
C417   C     0.42106   0.37112   0.90127   0.00000  Uiso   1.00
H418   H     0.40283   0.36177   0.96277   0.00000  Uiso   1.00
C419   C     0.47470   0.45007   0.69437   0.00000  Uiso   1.00
O420   O     0.28862   0.16662   0.78797   0.00000  Uiso   1.00
K421   K     0.50580   0.91404   0.73740   0.00000  Uiso   1.00
Sm422  Sm    0.50562   0.99175   0.04866   0.00000  Uiso   1.00
S423   S     0.48536   0.90999   0.10525   0.00000  Uiso   1.00
S424   S     0.67482   0.91847   0.26822   0.00000  Uiso   1.00
O425   O     0.50591   0.97207   0.31030   0.00000  Uiso   1.00
O426   O     0.50905   0.95655   0.54850   0.00000  Uiso   1.00
O427   O     0.49314   0.93776   0.00690   0.00000  Uiso   1.00
O428   O     0.47909   0.88309   0.00630   0.00000  Uiso   1.00
O429   O     0.46163   0.90400   0.22070   0.00000  Uiso   1.00
O430   O     0.64065   0.85286   0.88230   0.00000  Uiso   1.00
O431   O     0.65724   0.85085   0.12020   0.00000  Uiso   1.00
O432   O     0.69533   0.92322   0.13710   0.00000  Uiso   1.00
O433   O     0.67387   0.89550   0.38290   0.00000  Uiso   1.00
O434   O     0.67970   0.94725   0.34410   0.00000  Uiso   1.00
C435   C     0.52998   0.93963   0.34270   0.00000  Uiso   1.00
C436   C     0.52045   0.91960   0.21330   0.00000  Uiso   1.00
C437   C     0.53842   0.90654   0.16330   0.00000  Uiso   1.00
H438   H     0.53250   0.89410   0.07300   0.00000  Uiso   1.00
C439   C     0.56561   0.91187   0.24710   0.00000  Uiso   1.00
C440   C     0.57327   0.92992   0.37940   0.00000  Uiso   1.00
H441   H     0.59040   0.93290   0.43960   0.00000  Uiso   1.00
C442   C     0.55595   0.94392   0.42640   0.00000  Uiso   1.00
H443   H     0.56200   0.95650   0.51640   0.00000  Uiso   1.00
C444   C     0.51373   0.95660   0.40510   0.00000  Uiso   1.00
C445   C     0.58519   0.89841   0.18870   0.00000  Uiso   1.00
C446   C     0.57373   0.87241   0.09180   0.00000  Uiso   1.00
H447   H     0.55250   0.86220   0.06220   0.00000  Uiso   1.00
C448   C     0.59271   0.86107   0.03740   0.00000  Uiso   1.00
H449   H     0.58460   0.84460   0.96460   0.00000  Uiso   1.00
C450   C     0.62333   0.87352   0.08850   0.00000  Uiso   1.00
C451   C     0.63553   0.89911   0.18910   0.00000  Uiso   1.00
C452   C     0.61672   0.91227   0.23460   0.00000  Uiso   1.00
H453   H     0.62560   0.93050   0.29610   0.00000  Uiso   1.00
C454   C     0.64203   0.85863   0.02770   0.00000  Uiso   1.00
O455   O     0.54466   0.04471   0.12130   0.00000  Uiso   1.00
K456   K     0.17247   0.24737   0.07073   0.00000  Uiso   1.00
Sm457  Sm    0.17229   0.32508   0.38199   0.00000  Uiso   1.00
S458   S     0.15203   0.24332   0.43858   0.00000  Uiso   1.00
S459   S     0.34149   0.25180   0.60155   0.00000  Uiso   1.00
O460   O     0.17258   0.30540   0.64363   0.00000  Uiso   1.00
O461   O     0.17572   0.28988   0.88183   0.00000  Uiso   1.00
O462   O     0.15981   0.27109   0.34023   0.00000  Uiso   1.00
O463   O     0.14576   0.21642   0.33963   0.00000  Uiso   1.00
O464   O     0.12830   0.23733   0.55403   0.00000  Uiso   1.00
O465   O     0.30732   0.18619   0.21563   0.00000  Uiso   1.00
O466   O     0.32391   0.18418   0.45353   0.00000  Uiso   1.00
O467   O     0.36200   0.25655   0.47043   0.00000  Uiso   1.00
O468   O     0.34054   0.22883   0.71623   0.00000  Uiso   1.00
O469   O     0.34637   0.28058   0.67743   0.00000  Uiso   1.00
C470   C     0.19665   0.27296   0.67603   0.00000  Uiso   1.00
C471   C     0.18712   0.25293   0.54663   0.00000  Uiso   1.00
C472   C     0.20509   0.23987   0.49663   0.00000  Uiso   1.00
H473   H     0.19917   0.22743   0.40633   0.00000  Uiso   1.00
C474   C     0.23228   0.24520   0.58043   0.00000  Uiso   1.00
C475   C     0.23994   0.26325   0.71273   0.00000  Uiso   1.00
H476   H     0.25707   0.26623   0.77293   0.00000  Uiso   1.00
C477   C     0.22262   0.27725   0.75973   0.00000  Uiso   1.00
H478   H     0.22867   0.28983   0.84973   0.00000  Uiso   1.00
C479   C     0.18040   0.28993   0.73843   0.00000  Uiso   1.00
C480   C     0.25186   0.23174   0.52203   0.00000  Uiso   1.00
C481   C     0.24040   0.20574   0.42513   0.00000  Uiso   1.00
H482   H     0.21917   0.19553   0.39553   0.00000  Uiso   1.00
C483   C     0.25938   0.19440   0.37073   0.00000  Uiso   1.00
H484   H     0.25127   0.17793   0.29793   0.00000  Uiso   1.00
C485   C     0.29000   0.20685   0.42183   0.00000  Uiso   1.00
C486   C     0.30220   0.23244   0.52243   0.00000  Uiso   1.00
C487   C     0.28339   0.24560   0.56793   0.00000  Uiso   1.00
H488   H     0.29227   0.26383   0.62943   0.00000  Uiso   1.00
C489   C     0.30870   0.19196   0.36103   0.00000  Uiso   1.00
O490   O     0.21133   0.37804   0.45463   0.00000  Uiso   1.00
K491   K     0.83913   0.58071   0.40407   0.00000  Uiso   1.00
Sm492  Sm    0.83895   0.65842   0.71533   0.00000  Uiso   1.00
S493   S     0.81869   0.57666   0.77192   0.00000  Uiso   1.00
S494   S     0.00815   0.58514   0.93489   0.00000  Uiso   1.00
O495   O     0.83924   0.63874   0.97697   0.00000  Uiso   1.00
O496   O     0.84238   0.62322   0.21517   0.00000  Uiso   1.00
O497   O     0.82647   0.60443   0.67357   0.00000  Uiso   1.00
O498   O     0.81242   0.54976   0.67297   0.00000  Uiso   1.00
O499   O     0.79496   0.57067   0.88737   0.00000  Uiso   1.00
O500   O     0.97398   0.51953   0.54897   0.00000  Uiso   1.00
O501   O     0.99057   0.51752   0.78687   0.00000  Uiso   1.00
O502   O     0.02866   0.58989   0.80377   0.00000  Uiso   1.00
O503   O     0.00720   0.56217   0.04957   0.00000  Uiso   1.00
O504   O     0.01303   0.61392   0.01077   0.00000  Uiso   1.00
C505   C     0.86331   0.60630   0.00937   0.00000  Uiso   1.00
C506   C     0.85378   0.58627   0.87997   0.00000  Uiso   1.00
C507   C     0.87175   0.57321   0.82997   0.00000  Uiso   1.00
H508   H     0.86583   0.56077   0.73967   0.00000  Uiso   1.00
C509   C     0.89894   0.57854   0.91377   0.00000  Uiso   1.00
C510   C     0.90660   0.59659   0.04607   0.00000  Uiso   1.00
H511   H     0.92373   0.59957   0.10627   0.00000  Uiso   1.00
C512   C     0.88928   0.61059   0.09307   0.00000  Uiso   1.00
H513   H     0.89533   0.62317   0.18307   0.00000  Uiso   1.00
C514   C     0.84706   0.62327   0.07177   0.00000  Uiso   1.00
C515   C     0.91852   0.56508   0.85537   0.00000  Uiso   1.00
C516   C     0.90706   0.53908   0.75847   0.00000  Uiso   1.00
H517   H     0.88583   0.52887   0.72887   0.00000  Uiso   1.00
C518   C     0.92604   0.52774   0.70407   0.00000  Uiso   1.00
H519   H     0.91793   0.51127   0.63127   0.00000  Uiso   1.00
C520   C     0.95666   0.54019   0.75517   0.00000  Uiso   1.00
C521   C     0.96886   0.56578   0.85577   0.00000  Uiso   1.00
C522   C     0.95005   0.57894   0.90127   0.00000  Uiso   1.00
H523   H     0.95893   0.59717   0.96277   0.00000  Uiso   1.00
C524   C     0.97536   0.52530   0.69437   0.00000  Uiso   1.00
O525   O     0.87799   0.71138   0.78797   0.00000  Uiso   1.00
K526   K     0.40824   0.49420   0.73740   0.00000  Uiso   1.00
Sm527  Sm    0.48613   0.49438   0.04866   0.00000  Uiso   1.00
S528   S     0.42463   0.51464   0.10525   0.00000  Uiso   1.00
S529   S     0.24365   0.32518   0.26822   0.00000  Uiso   1.00
O530   O     0.46616   0.49409   0.31030   0.00000  Uiso   1.00
O531   O     0.44750   0.49095   0.54850   0.00000  Uiso   1.00
O532   O     0.44462   0.50686   0.00690   0.00000  Uiso   1.00
O533   O     0.40400   0.52091   0.00630   0.00000  Uiso   1.00
O534   O     0.44237   0.53837   0.22070   0.00000  Uiso   1.00
O535   O     0.21221   0.35935   0.88230   0.00000  Uiso   1.00
O536   O     0.19361   0.34276   0.12020   0.00000  Uiso   1.00
O537   O     0.22789   0.30467   0.13710   0.00000  Uiso   1.00
O538   O     0.22163   0.32613   0.38290   0.00000  Uiso   1.00
O539   O     0.26755   0.32030   0.34410   0.00000  Uiso   1.00
C540   C     0.40965   0.47002   0.34270   0.00000  Uiso   1.00
C541   C     0.39915   0.47955   0.21330   0.00000  Uiso   1.00
C542   C     0.36812   0.46158   0.16330   0.00000  Uiso   1.00
H543   H     0.36160   0.46750   0.07300   0.00000  Uiso   1.00
C544   C     0.34626   0.43439   0.24710   0.00000  Uiso   1.00
C545   C     0.35665   0.42673   0.37940   0.00000  Uiso   1.00
H546   H     0.34250   0.40960   0.43960   0.00000  Uiso   1.00
C547   C     0.38797   0.44405   0.42640   0.00000  Uiso   1.00
H548   H     0.39450   0.43800   0.51640   0.00000  Uiso   1.00
C549   C     0.44287   0.48627   0.40510   0.00000  Uiso   1.00
C550   C     0.31322   0.41481   0.18870   0.00000  Uiso   1.00
C551   C     0.29868   0.42627   0.09180   0.00000  Uiso   1.00
H552   H     0.30970   0.44750   0.06220   0.00000  Uiso   1.00
C553   C     0.26836   0.40729   0.03740   0.00000  Uiso   1.00
H554   H     0.26000   0.41540   0.96460   0.00000  Uiso   1.00
C555   C     0.25019   0.37667   0.08850   0.00000  Uiso   1.00
C556   C     0.26358   0.36447   0.18910   0.00000  Uiso   1.00
C557   C     0.29555   0.38328   0.23460   0.00000  Uiso   1.00
H558   H     0.30490   0.37440   0.29610   0.00000  Uiso   1.00
C559   C     0.21660   0.35797   0.02770   0.00000  Uiso   1.00
O560   O     0.50005   0.45534   0.12130   0.00000  Uiso   1.00
K561   K     0.07491   0.82753   0.07073   0.00000  Uiso   1.00
Sm562  Sm    0.15280   0.82771   0.38199   0.00000  Uiso   1.00
S563   S     0.09130   0.84797   0.43858   0.00000  Uiso   1.00
S564   S     0.91032   0.65851   0.60155   0.00000  Uiso   1.00
O565   O     0.13283   0.82742   0.64363   0.00000  Uiso   1.00
O566   O     0.11417   0.82428   0.88183   0.00000  Uiso   1.00
O567   O     0.11129   0.84019   0.34023   0.00000  Uiso   1.00
O568   O     0.07067   0.85424   0.33963   0.00000  Uiso   1.00
O569   O     0.10904   0.87170   0.55403   0.00000  Uiso   1.00
O570   O     0.87888   0.69268   0.21563   0.00000  Uiso   1.00
O571   O     0.86028   0.67609   0.45353   0.00000  Uiso   1.00
O572   O     0.89456   0.63800   0.47043   0.00000  Uiso   1.00
O573   O     0.88830   0.65946   0.71623   0.00000  Uiso   1.00
O574   O     0.93422   0.65363   0.67743   0.00000  Uiso   1.00
C575   C     0.07632   0.80335   0.67603   0.00000  Uiso   1.00
C576   C     0.06582   0.81288   0.54663   0.00000  Uiso   1.00
C577   C     0.03479   0.79491   0.49663   0.00000  Uiso   1.00
H578   H     0.02827   0.80083   0.40633   0.00000  Uiso   1.00
C579   C     0.01293   0.76772   0.58043   0.00000  Uiso   1.00
C580   C     0.02332   0.76006   0.71273   0.00000  Uiso   1.00
H581   H     0.00917   0.74293   0.77293   0.00000  Uiso   1.00
C582   C     0.05464   0.77738   0.75973   0.00000  Uiso   1.00
H583   H     0.06117   0.77133   0.84973   0.00000  Uiso   1.00
C584   C     0.10954   0.81960   0.73843   0.00000  Uiso   1.00
C585   C     0.97989   0.74814   0.52203   0.00000  Uiso   1.00
C586   C     0.96535   0.75960   0.42513   0.00000  Uiso   1.00
H587   H     0.97637   0.78083   0.39553   0.00000  Uiso   1.00
C588   C     0.93503   0.74062   0.37073   0.00000  Uiso   1.00
H589   H     0.92667   0.74873   0.29793   0.00000  Uiso   1.00
C590   C     0.91686   0.71000   0.42183   0.00000  Uiso   1.00
C591   C     0.93025   0.69780   0.52243   0.00000  Uiso   1.00
C592   C     0.96222   0.71661   0.56793   0.00000  Uiso   1.00
H593   H     0.97157   0.70773   0.62943   0.00000  Uiso   1.00
C594   C     0.88327   0.69130   0.36103   0.00000  Uiso   1.00
O595   O     0.16672   0.78867   0.45463   0.00000  Uiso   1.00
K596   K     0.74157   0.16087   0.40407   0.00000  Uiso   1.00
Sm597  Sm    0.81946   0.16105   0.71533   0.00000  Uiso   1.00
S598   S     0.75796   0.18131   0.77192   0.00000  Uiso   1.00
S599   S     0.57698   0.99185   0.93489   0.00000  Uiso   1.00
O600   O     0.79949   0.16076   0.97697   0.00000  Uiso   1.00
O601   O     0.78083   0.15762   0.21517   0.00000  Uiso   1.00
O602   O     0.77795   0.17353   0.67357   0.00000  Uiso   1.00
O603   O     0.73733   0.18758   0.67297   0.00000  Uiso   1.00
O604   O     0.77570   0.20504   0.88737   0.00000  Uiso   1.00
O605   O     0.54554   0.02602   0.54897   0.00000  Uiso   1.00
O606   O     0.52694   0.00943   0.78687   0.00000  Uiso   1.00
O607   O     0.56122   0.97134   0.80377   0.00000  Uiso   1.00
O608   O     0.55496   0.99280   0.04957   0.00000  Uiso   1.00
O609   O     0.60088   0.98697   0.01077   0.00000  Uiso   1.00
C610   C     0.74298   0.13669   0.00937   0.00000  Uiso   1.00
C611   C     0.73248   0.14622   0.87997   0.00000  Uiso   1.00
C612   C     0.70145   0.12825   0.82997   0.00000  Uiso   1.00
H613   H     0.69493   0.13417   0.73967   0.00000  Uiso   1.00
C614   C     0.67959   0.10106   0.91377   0.00000  Uiso   1.00
C615   C     0.68998   0.09340   0.04607   0.00000  Uiso   1.00
H616   H     0.67583   0.07627   0.10627   0.00000  Uiso   1.00
C617   C     0.72130   0.11072   0.09307   0.00000  Uiso   1.00
H618   H     0.72783   0.10467   0.18307   0.00000  Uiso   1.00
C619   C     0.77620   0.15294   0.07177   0.00000  Uiso   1.00
C620   C     0.64655   0.08148   0.85537   0.00000  Uiso   1.00
C621   C     0.63201   0.09294   0.75847   0.00000  Uiso   1.00
H622   H     0.64303   0.11417   0.72887   0.00000  Uiso   1.00
C623   C     0.60169   0.07396   0.70407   0.00000  Uiso   1.00
H624   H     0.59333   0.08207   0.63127   0.00000  Uiso   1.00
C625   C     0.58352   0.04334   0.75517   0.00000  Uiso   1.00
C626   C     0.59691   0.03114   0.85577   0.00000  Uiso   1.00
C627   C     0.62888   0.04995   0.90127   0.00000  Uiso   1.00
H628   H     0.63823   0.04107   0.96277   0.00000  Uiso   1.00
C629   C     0.54993   0.02464   0.69437   0.00000  Uiso   1.00
O630   O     0.83338   0.12201   0.78797   0.00000  Uiso   1.00
loop_
_geom_bond_atom_site_label_1
_geom_bond_atom_site_label_2
_geom_bond_distance
_geom_bond_site_symmetry_2
_ccdc_geom_bond_type
K1     O6      2.564   .     S
K1     C22     3.393   1_554 S
K1     O7      2.769   .     S
K1     O8      2.687   .     S
K1     O429    2.887   .     S
K1     O187    2.810   .     S
Sm2    O5      2.422   .     S
Sm2    O7      2.417   .     S
Sm2    O35     2.403   1_565 S
Sm2    O425    2.622   .     S
Sm2    O426    2.476   .     S
Sm2    O605    2.522   1_565 S
Sm2    O186    2.421   1_565 S
Sm2    O606    2.661   1_565 S
Sm2    O188    2.384   .     S
S3     O7      1.471   .     S
S3     O8      1.457   .     S
S3     O9      1.431   .     S
S3     C16     1.787   .     S
S4     O12     1.436   .     S
S4     O13     1.468   .     S
S4     O14     1.453   .     S
S4     C31     1.792   .     S
O5     C24     1.285   .     S
O5     Sm422   2.622   1_556 S
O6     C24     1.238   1_554 S
O6     Sm422   2.476   .     S
O9     K421    2.887   .     S
O10    C34     1.260   .     S
O10    Sm562   2.522   .     S
O11    C34     1.263   .     S
O11    Sm247   2.421   .     S
O11    Sm562   2.661   .     S
O12    K246    2.810   .     S
O13    Sm247   2.384   .     S
C15    C16     1.387   .     S
C15    C24     1.501   .     S
C15    C22     1.375   .     S
C16    C17     1.384   .     S
C17    H18     0.929   .     S
C17    C19     1.411   .     S
C19    C20     1.359   .     S
C19    C25     1.490   .     S
C20    H21     0.927   .     S
C20    C22     1.386   .     S
C22    K1      3.393   1_556 S
C22    H23     0.931   1_556 S
H23    C22     0.931   1_554 S
C24    O6      1.238   1_556 S
C25    C26     1.375   .     S
C25    C32     1.392   .     S
C26    H27     0.932   .     S
C26    C28     1.375   .     S
C28    H29     0.931   .     S
C28    C30     1.373   .     S
C30    C34     1.514   .     S
C30    C31     1.379   .     S
C31    C32     1.413   .     S
C32    H33     0.931   .     S
O35    Sm2     2.403   1_545 S
K36    O41     2.564   .     S
K36    C57     3.393   .     S
K36    O42     2.769   .     S
K36    O43     2.687   .     S
K36    O464    2.887   .     S
K36    O117    2.810   .     S
Sm37   O40     2.422   1_556 S
Sm37   O42     2.417   .     S
Sm37   O70     2.403   .     S
Sm37   O460    2.622   .     S
Sm37   O461    2.476   .     S
Sm37   O535    2.522   .     S
Sm37   O116    2.421   .     S
Sm37   O536    2.661   1_556 S
Sm37   O118    2.384   .     S
S38    O42     1.471   .     S
S38    O43     1.457   .     S
S38    O44     1.431   1_556 S
S38    C51     1.787   1_556 S
S39    O47     1.436   1_554 S
S39    O48     1.468   .     S
S39    O49     1.453   .     S
S39    C66     1.792   .     S
O40    Sm37    2.422   1_554 S
O40    C59     1.285   .     S
O40    Sm457   2.622   .     S
O41    C59     1.238   .     S
O41    Sm457   2.476   .     S
O44    S38     1.431   1_554 S
O44    K456    2.887   .     S
O45    C69     1.260   .     S
O45    Sm597   2.522   .     S
O46    C69     1.263   .     S
O46    Sm282   2.421   1_556 S
O46    Sm597   2.661   .     S
O47    S39     1.436   1_556 S
O47    K281    2.810   .     S
O48    Sm282   2.384   .     S
C50    C51     1.387   .     S
C50    C59     1.501   .     S
C50    C57     1.375   .     S
C51    S38     1.787   1_554 S
C51    C52     1.384   1_554 S
C52    C51     1.384   1_556 S
C52    H53     0.929   .     S
C52    C54     1.411   1_556 S
C54    C52     1.411   1_554 S
C54    C55     1.359   .     S
C54    C60     1.490   1_455 S
C55    H56     0.927   .     S
C55    C57     1.386   .     S
C57    H58     0.931   .     S
C60    C54     1.490   1_655 S
C60    C61     1.375   1_554 S
C60    C67     1.392   .     S
C61    C60     1.375   1_556 S
C61    H62     0.932   .     S
C61    C63     1.375   .     S
C63    H64     0.931   .     S
C63    C65     1.373   .     S
C65    C69     1.514   .     S
C65    C66     1.379   1_556 S
C66    C65     1.379   1_554 S
C66    C67     1.413   .     S
C67    H68     0.931   .     S
K71    O76     2.564   .     S
K71    C92     3.393   .     S
K71    O77     2.769   1_556 S
K71    O78     2.687   1_556 S
K71    O499    2.887   .     S
K71    O152    2.810   .     S
Sm72   O75     2.422   .     S
Sm72   O77     2.417   .     S
Sm72   O105    2.403   .     S
Sm72   O495    2.622   1_554 S
Sm72   O496    2.476   .     S
Sm72   O570    2.522   .     S
Sm72   O151    2.421   1_554 S
Sm72   O571    2.661   .     S
Sm72   O153    2.384   .     S
S73    O77     1.471   .     S
S73    O78     1.457   .     S
S73    O79     1.431   .     S
S73    C86     1.787   .     S
S74    O82     1.436   .     S
S74    O83     1.468   .     S
S74    O84     1.453   .     S
S74    C101    1.792   .     S
O75    C94     1.285   .     S
O75    Sm492   2.622   .     S
O76    C94     1.238   .     S
O76    Sm492   2.476   .     S
O77    K71     2.769   1_554 S
O78    K71     2.687   1_554 S
O79    K491    2.887   .     S
O80    C104    1.260   .     S
O80    Sm527   2.522   .     S
O81    C104    1.263   .     S
O81    Sm212   2.421   .     S
O81    Sm527   2.661   .     S
O82    K211    2.810   .     S
O83    Sm212   2.384   .     S
C85    C86     1.387   .     S
C85    C94     1.501   .     S
C85    C92     1.375   .     S
C86    C87     1.384   .     S
C87    H88     0.929   .     S
C87    C89     1.411   .     S
C89    C90     1.359   .     S
C89    C95     1.490   .     S
C90    H91     0.927   .     S
C90    C92     1.386   .     S
C92    H93     0.931   .     S
C95    C96     1.375   .     S
C95    C102    1.392   .     S
C96    H97     0.932   .     S
C96    C98     1.375   .     S
C98    H99     0.931   .     S
C98    C100    1.373   .     S
C100   C104    1.514   .     S
C100   C101    1.379   .     S
C101   C102    1.413   .     S
C102   H103    0.931   .     S
K106   O111    2.564   .     S
K106   C127    3.393   1_554 S
K106   O112    2.769   .     S
K106   O113    2.687   .     S
K106   O324    2.887   .     S
K106   O292    2.810   .     S
Sm107  O110    2.422   .     S
Sm107  O112    2.417   .     S
Sm107  O140    2.403   1_455 S
Sm107  O320    2.622   .     S
Sm107  O321    2.476   .     S
Sm107  O500    2.522   1_455 S
Sm107  O291    2.421   1_455 S
Sm107  O501    2.661   1_455 S
Sm107  O293    2.384   .     S
S108   O112    1.471   .     S
S108   O113    1.457   .     S
S108   O114    1.431   .     S
S108   C121    1.787   .     S
S109   O117    1.436   .     S
S109   O118    1.468   .     S
S109   O119    1.453   .     S
S109   C136    1.792   .     S
O110   C129    1.285   .     S
O110   Sm317   2.622   1_556 S
O111   C129    1.238   1_554 S
O111   Sm317   2.476   .     S
O114   K316    2.887   .     S
O115   C139    1.260   .     S
O115   Sm457   2.522   .     S
O116   C139    1.263   .     S
O116   Sm457   2.661   .     S
C120   C121    1.387   .     S
C120   C129    1.501   .     S
C120   C127    1.375   .     S
C121   C122    1.384   .     S
C122   H123    0.929   .     S
C122   C124    1.411   .     S
C124   C125    1.359   .     S
C124   C130    1.490   .     S
C125   H126    0.927   .     S
C125   C127    1.386   .     S
C127   K106    3.393   1_556 S
C127   H128    0.931   1_556 S
H128   C127    0.931   1_554 S
C129   O111    1.238   1_556 S
C130   C131    1.375   .     S
C130   C137    1.392   .     S
C131   H132    0.932   .     S
C131   C133    1.375   .     S
C133   H134    0.931   .     S
C133   C135    1.373   .     S
C135   C139    1.514   .     S
C135   C136    1.379   .     S
C136   C137    1.413   .     S
C137   H138    0.931   .     S
O140   Sm107   2.403   1_655 S
K141   O146    2.564   .     S
K141   C162    3.393   .     S
K141   O147    2.769   .     S
K141   O148    2.687   .     S
K141   O359    2.887   .     S
K141   O222    2.810   .     S
Sm142  O145    2.422   1_556 S
Sm142  O147    2.417   .     S
Sm142  O175    2.403   .     S
Sm142  O355    2.622   .     S
Sm142  O356    2.476   .     S
Sm142  O430    2.522   .     S
Sm142  O221    2.421   .     S
Sm142  O431    2.661   1_556 S
Sm142  O223    2.384   .     S
S143   O147    1.471   .     S
S143   O148    1.457   .     S
S143   O149    1.431   1_556 S
S143   C156    1.787   1_556 S
S144   O152    1.436   1_554 S
S144   O153    1.468   .     S
S144   O154    1.453   .     S
S144   C171    1.792   .     S
O145   Sm142   2.422   1_554 S
O145   C164    1.285   .     S
O145   Sm352   2.622   .     S
O146   C164    1.238   .     S
O146   Sm352   2.476   .     S
O149   S143    1.431   1_554 S
O149   K351    2.887   .     S
O150   C174    1.260   .     S
O150   Sm492   2.522   .     S
O151   C174    1.263   .     S
O151   Sm72    2.421   1_556 S
O151   Sm492   2.661   .     S
O152   S144    1.436   1_556 S
C155   C156    1.387   .     S
C155   C164    1.501   .     S
C155   C162    1.375   .     S
C156   S143    1.787   1_554 S
C156   C157    1.384   1_554 S
C157   C156    1.384   1_556 S
C157   H158    0.929   .     S
C157   C159    1.411   1_556 S
C159   C157    1.411   1_554 S
C159   C160    1.359   .     S
C159   C165    1.490   .     S
C160   H161    0.927   .     S
C160   C162    1.386   .     S
C162   H163    0.931   .     S
C165   C166    1.375   1_554 S
C165   C172    1.392   .     S
C166   C165    1.375   1_556 S
C166   H167    0.932   .     S
C166   C168    1.375   .     S
C168   H169    0.931   .     S
C168   C170    1.373   .     S
C170   C174    1.514   .     S
C170   C171    1.379   1_556 S
C171   C170    1.379   1_554 S
C171   C172    1.413   .     S
C172   H173    0.931   .     S
K176   O181    2.564   .     S
K176   C197    3.393   .     S
K176   O182    2.769   1_556 S
K176   O183    2.687   1_556 S
K176   O394    2.887   .     S
K176   O257    2.810   .     S
Sm177  O180    2.422   .     S
Sm177  O182    2.417   .     S
Sm177  O210    2.403   .     S
Sm177  O390    2.622   1_554 S
Sm177  O391    2.476   .     S
Sm177  O465    2.522   .     S
Sm177  O256    2.421   1_554 S
Sm177  O466    2.661   .     S
Sm177  O258    2.384   .     S
S178   O182    1.471   .     S
S178   O183    1.457   .     S
S178   O184    1.431   .     S
S178   C191    1.787   .     S
S179   O187    1.436   .     S
S179   O188    1.468   .     S
S179   O189    1.453   .     S
S179   C206    1.792   1_565 S
O180   C199    1.285   .     S
O180   Sm387   2.622   .     S
O181   C199    1.238   .     S
O181   Sm387   2.476   .     S
O182   K176    2.769   1_554 S
O183   K176    2.687   1_554 S
O184   K386    2.887   .     S
O185   C209    1.260   .     S
O185   Sm422   2.522   1_545 S
O186   C209    1.263   .     S
O186   Sm2     2.421   1_545 S
O186   Sm422   2.661   1_545 S
C190   C191    1.387   .     S
C190   C199    1.501   .     S
C190   C197    1.375   .     S
C191   C192    1.384   .     S
C192   H193    0.929   .     S
C192   C194    1.411   .     S
C194   C195    1.359   .     S
C194   C200    1.490   .     S
C195   H196    0.927   .     S
C195   C197    1.386   .     S
C197   H198    0.931   .     S
C200   C201    1.375   .     S
C200   C207    1.392   .     S
C201   H202    0.932   .     S
C201   C203    1.375   .     S
C203   H204    0.931   .     S
C203   C205    1.373   .     S
C205   C209    1.514   .     S
C205   C206    1.379   .     S
C206   S179    1.792   1_545 S
C206   C207    1.413   .     S
C207   H208    0.931   .     S
K211   O216    2.564   .     S
K211   C232    3.393   1_554 S
K211   O217    2.769   .     S
K211   O218    2.687   .     S
K211   O534    2.887   .     S
Sm212  O215    2.422   .     S
Sm212  O217    2.417   .     S
Sm212  O245    2.403   .     S
Sm212  O530    2.622   .     S
Sm212  O531    2.476   .     S
Sm212  O395    2.522   .     S
Sm212  O396    2.661   .     S
S213   O217    1.471   .     S
S213   O218    1.457   .     S
S213   O219    1.431   .     S
S213   C226    1.787   .     S
S214   O222    1.436   .     S
S214   O223    1.468   .     S
S214   O224    1.453   .     S
S214   C241    1.792   .     S
O215   C234    1.285   .     S
O215   Sm527   2.622   1_556 S
O216   C234    1.238   1_554 S
O216   Sm527   2.476   .     S
O219   K526    2.887   .     S
O220   C244    1.260   .     S
O220   Sm352   2.522   .     S
O221   C244    1.263   .     S
O221   Sm352   2.661   .     S
C225   C226    1.387   .     S
C225   C234    1.501   .     S
C225   C232    1.375   .     S
C226   C227    1.384   .     S
C227   H228    0.929   .     S
C227   C229    1.411   .     S
C229   C230    1.359   .     S
C229   C235    1.490   .     S
C230   H231    0.927   .     S
C230   C232    1.386   .     S
C232   K211    3.393   1_556 S
C232   H233    0.931   1_556 S
H233   C232    0.931   1_554 S
C234   O216    1.238   1_556 S
C235   C236    1.375   .     S
C235   C242    1.392   .     S
C236   H237    0.932   .     S
C236   C238    1.375   .     S
C238   H239    0.931   .     S
C238   C240    1.373   .     S
C240   C244    1.514   .     S
C240   C241    1.379   .     S
C241   C242    1.413   .     S
C242   H243    0.931   .     S
K246   O251    2.564   .     S
K246   C267    3.393   .     S
K246   O252    2.769   .     S
K246   O253    2.687   .     S
K246   O569    2.887   .     S
Sm247  O250    2.422   1_556 S
Sm247  O252    2.417   .     S
Sm247  O280    2.403   .     S
Sm247  O565    2.622   .     S
Sm247  O566    2.476   .     S
Sm247  O325    2.522   .     S
Sm247  O326    2.661   1_556 S
S248   O252    1.471   .     S
S248   O253    1.457   .     S
S248   O254    1.431   1_556 S
S248   C261    1.787   1_556 S
S249   O257    1.436   1_554 S
S249   O258    1.468   .     S
S249   O259    1.453   .     S
S249   C276    1.792   .     S
O250   Sm247   2.422   1_554 S
O250   C269    1.285   .     S
O250   Sm562   2.622   .     S
O251   C269    1.238   .     S
O251   Sm562   2.476   .     S
O254   S248    1.431   1_554 S
O254   K561    2.887   .     S
O255   C279    1.260   .     S
O255   Sm387   2.522   .     S
O256   C279    1.263   .     S
O256   Sm177   2.421   1_556 S
O256   Sm387   2.661   .     S
O257   S249    1.436   1_556 S
C260   C261    1.387   .     S
C260   C269    1.501   .     S
C260   C267    1.375   .     S
C261   S248    1.787   1_554 S
C261   C262    1.384   1_554 S
C262   C261    1.384   1_556 S
C262   H263    0.929   .     S
C262   C264    1.411   1_556 S
C264   C262    1.411   1_554 S
C264   C265    1.359   .     S
C264   C270    1.490   1_565 S
C265   H266    0.927   .     S
C265   C267    1.386   .     S
C267   H268    0.931   .     S
C270   C264    1.490   1_545 S
C270   C271    1.375   1_554 S
C270   C277    1.392   .     S
C271   C270    1.375   1_556 S
C271   H272    0.932   .     S
C271   C273    1.375   .     S
C273   H274    0.931   .     S
C273   C275    1.373   .     S
C275   C279    1.514   .     S
C275   C276    1.379   1_556 S
C276   C275    1.379   1_554 S
C276   C277    1.413   .     S
C277   H278    0.931   .     S
K281   O286    2.564   .     S
K281   C302    3.393   .     S
K281   O287    2.769   1_556 S
K281   O288    2.687   1_556 S
K281   O604    2.887   .     S
Sm282  O285    2.422   .     S
Sm282  O287    2.417   .     S
Sm282  O315    2.403   .     S
Sm282  O600    2.622   1_554 S
Sm282  O601    2.476   .     S
Sm282  O360    2.522   .     S
Sm282  O46     2.421   1_554 S
Sm282  O361    2.661   .     S
S283   O287    1.471   .     S
S283   O288    1.457   .     S
S283   O289    1.431   .     S
S283   C296    1.787   .     S
S284   O292    1.436   .     S
S284   O293    1.468   .     S
S284   O294    1.453   .     S
S284   C311    1.792   1_455 S
O285   C304    1.285   .     S
O285   Sm597   2.622   .     S
O286   C304    1.238   .     S
O286   Sm597   2.476   .     S
O287   K281    2.769   1_554 S
O288   K281    2.687   1_554 S
O289   K596    2.887   .     S
O290   C314    1.260   .     S
O290   Sm317   2.522   1_655 S
O291   C314    1.263   .     S
O291   Sm107   2.421   1_655 S
O291   Sm317   2.661   1_655 S
C295   C296    1.387   .     S
C295   C304    1.501   .     S
C295   C302    1.375   .     S
C296   C297    1.384   .     S
C297   H298    0.929   .     S
C297   C299    1.411   .     S
C299   C300    1.359   .     S
C299   C305    1.490   .     S
C300   H301    0.927   .     S
C300   C302    1.386   .     S
C302   H303    0.931   .     S
C305   C306    1.375   .     S
C305   C312    1.392   .     S
C306   H307    0.932   .     S
C306   C308    1.375   .     S
C308   H309    0.931   .     S
C308   C310    1.373   .     S
C310   C314    1.514   .     S
C310   C311    1.379   .     S
C311   S284    1.792   1_655 S
C311   C312    1.413   .     S
C312   H313    0.931   .     S
K316   O321    2.564   .     S
K316   C337    3.393   .     S
K316   O322    2.769   1_556 S
K316   O323    2.687   1_556 S
K316   O502    2.810   .     S
Sm317  O320    2.422   .     S
Sm317  O322    2.417   .     S
Sm317  O350    2.403   1_455 S
Sm317  O110    2.622   1_554 S
Sm317  O290    2.522   1_455 S
Sm317  O501    2.421   1_454 S
Sm317  O291    2.661   1_455 S
Sm317  O503    2.384   .     S
S318   O322    1.471   .     S
S318   O323    1.457   .     S
S318   O324    1.431   .     S
S318   C331    1.787   .     S
S319   O327    1.436   .     S
S319   O328    1.468   .     S
S319   O329    1.453   .     S
S319   C346    1.792   .     S
O320   C339    1.285   .     S
O321   C339    1.238   .     S
O322   K316    2.769   1_554 S
O323   K316    2.687   1_554 S
O325   C349    1.260   1_556 S
O326   C349    1.263   .     S
O326   Sm562   2.421   .     S
O326   Sm247   2.661   1_554 S
O327   K561    2.810   .     S
O328   Sm562   2.384   .     S
C330   C331    1.387   .     S
C330   C339    1.501   .     S
C330   C337    1.375   .     S
C331   C332    1.384   .     S
C332   H333    0.929   .     S
C332   C334    1.411   .     S
C334   C335    1.359   .     S
C334   C340    1.490   .     S
C335   H336    0.927   .     S
C335   C337    1.386   .     S
C337   H338    0.931   .     S
C340   C341    1.375   .     S
C340   C347    1.392   .     S
C341   H342    0.932   .     S
C341   C343    1.375   .     S
C343   H344    0.931   1_554 S
C343   C345    1.373   .     S
H344   C343    0.931   1_556 S
C345   C349    1.514   .     S
C345   C346    1.379   .     S
C346   C347    1.413   .     S
C347   H348    0.931   .     S
C349   O325    1.260   1_554 S
O350   Sm317   2.403   1_655 S
K351   O356    2.564   1_554 S
K351   C372    3.393   1_554 S
K351   O357    2.769   .     S
K351   O358    2.687   .     S
K351   O432    2.810   .     S
Sm352  O355    2.422   .     S
Sm352  O357    2.417   .     S
Sm352  O385    2.403   .     S
Sm352  O431    2.421   .     S
Sm352  O433    2.384   .     S
S353   O357    1.471   .     S
S353   O358    1.457   .     S
S353   O359    1.431   .     S
S353   C366    1.787   .     S
S354   O362    1.436   .     S
S354   O363    1.468   .     S
S354   O364    1.453   .     S
S354   C381    1.792   .     S
O355   C374    1.285   .     S
O356   K351    2.564   1_556 S
O356   C374    1.238   .     S
O360   C384    1.260   .     S
O361   C384    1.263   .     S
O361   Sm597   2.421   .     S
O362   K596    2.810   .     S
O363   Sm597   2.384   .     S
C365   C366    1.387   .     S
C365   C374    1.501   .     S
C365   C372    1.375   .     S
C366   C367    1.384   .     S
C367   H368    0.929   .     S
C367   C369    1.411   .     S
C369   C370    1.359   .     S
C369   C375    1.490   1_565 S
C370   H371    0.927   .     S
C370   C372    1.386   .     S
C372   K351    3.393   1_556 S
C372   H373    0.931   .     S
C375   C369    1.490   1_545 S
C375   C376    1.375   .     S
C375   C382    1.392   .     S
C376   H377    0.932   .     S
C376   C378    1.375   .     S
C378   H379    0.931   .     S
C378   C380    1.373   .     S
C380   C384    1.514   .     S
C380   C381    1.379   .     S
C381   C382    1.413   .     S
C382   H383    0.931   .     S
K386   O391    2.564   .     S
K386   C407    3.393   .     S
K386   O392    2.769   .     S
K386   O393    2.687   .     S
K386   O467    2.810   .     S
Sm387  O390    2.422   .     S
Sm387  O392    2.417   .     S
Sm387  O420    2.403   .     S
Sm387  O466    2.421   .     S
Sm387  O468    2.384   .     S
S388   O392    1.471   .     S
S388   O393    1.457   .     S
S388   O394    1.431   .     S
S388   C401    1.787   .     S
S389   O397    1.436   .     S
S389   O398    1.468   1_556 S
S389   O399    1.453   1_556 S
S389   C416    1.792   .     S
O390   C409    1.285   1_556 S
O390   Sm177   2.622   1_556 S
O391   C409    1.238   .     S
O395   C419    1.260   .     S
O396   C419    1.263   .     S
O396   Sm527   2.421   1_556 S
O397   K526    2.810   .     S
O398   S389    1.468   1_554 S
O398   Sm527   2.384   .     S
O399   S389    1.453   1_554 S
C400   C401    1.387   1_554 S
C400   C409    1.501   .     S
C400   C407    1.375   .     S
C401   C400    1.387   1_556 S
C401   C402    1.384   .     S
C402   H403    0.929   .     S
C402   C404    1.411   .     S
C404   C405    1.359   1_556 S
C404   C410    1.490   .     S
C405   C404    1.359   1_554 S
C405   H406    0.927   .     S
C405   C407    1.386   .     S
C407   H408    0.931   .     S
C409   O390    1.285   1_554 S
C410   C411    1.375   .     S
C410   C417    1.392   .     S
C411   H412    0.932   .     S
C411   C413    1.375   .     S
C413   H414    0.931   .     S
C413   C415    1.373   .     S
C415   C419    1.514   .     S
C415   C416    1.379   .     S
C416   C417    1.413   .     S
C417   H418    0.931   .     S
K421   O426    2.564   .     S
K421   C442    3.393   .     S
K421   O427    2.769   1_556 S
K421   O428    2.687   1_556 S
K421   O607    2.810   .     S
Sm422  O425    2.422   .     S
Sm422  O427    2.417   .     S
Sm422  O455    2.403   1_565 S
Sm422  O5      2.622   1_554 S
Sm422  O185    2.522   1_565 S
Sm422  O606    2.421   1_564 S
Sm422  O186    2.661   1_565 S
Sm422  O608    2.384   .     S
S423   O427    1.471   .     S
S423   O428    1.457   .     S
S423   O429    1.431   .     S
S423   C436    1.787   .     S
S424   O432    1.436   .     S
S424   O433    1.468   .     S
S424   O434    1.453   .     S
S424   C451    1.792   .     S
O425   C444    1.285   .     S
O426   C444    1.238   .     S
O427   K421    2.769   1_554 S
O428   K421    2.687   1_554 S
O430   C454    1.260   1_556 S
O431   C454    1.263   .     S
O431   Sm142   2.661   1_554 S
C435   C436    1.387   .     S
C435   C444    1.501   .     S
C435   C442    1.375   .     S
C436   C437    1.384   .     S
C437   H438    0.929   .     S
C437   C439    1.411   .     S
C439   C440    1.359   .     S
C439   C445    1.490   .     S
C440   H441    0.927   .     S
C440   C442    1.386   .     S
C442   H443    0.931   .     S
C445   C446    1.375   .     S
C445   C452    1.392   .     S
C446   H447    0.932   .     S
C446   C448    1.375   .     S
C448   H449    0.931   1_554 S
C448   C450    1.373   .     S
H449   C448    0.931   1_556 S
C450   C454    1.514   .     S
C450   C451    1.379   .     S
C451   C452    1.413   .     S
C452   H453    0.931   .     S
C454   O430    1.260   1_554 S
O455   Sm422   2.403   1_545 S
K456   O461    2.564   1_554 S
K456   C477    3.393   1_554 S
K456   O462    2.769   .     S
K456   O463    2.687   .     S
K456   O537    2.810   .     S
Sm457  O460    2.422   .     S
Sm457  O462    2.417   .     S
Sm457  O490    2.403   .     S
Sm457  O536    2.421   .     S
Sm457  O538    2.384   .     S
S458   O462    1.471   .     S
S458   O463    1.457   .     S
S458   O464    1.431   .     S
S458   C471    1.787   .     S
S459   O467    1.436   .     S
S459   O468    1.468   .     S
S459   O469    1.453   .     S
S459   C486    1.792   .     S
O460   C479    1.285   .     S
O461   K456    2.564   1_556 S
O461   C479    1.238   .     S
O465   C489    1.260   .     S
O466   C489    1.263   .     S
C470   C471    1.387   .     S
C470   C479    1.501   .     S
C470   C477    1.375   .     S
C471   C472    1.384   .     S
C472   H473    0.929   .     S
C472   C474    1.411   .     S
C474   C475    1.359   .     S
C474   C480    1.490   .     S
C475   H476    0.927   .     S
C475   C477    1.386   .     S
C477   K456    3.393   1_556 S
C477   H478    0.931   .     S
C480   C481    1.375   .     S
C480   C487    1.392   .     S
C481   H482    0.932   .     S
C481   C483    1.375   .     S
C483   H484    0.931   .     S
C483   C485    1.373   .     S
C485   C489    1.514   .     S
C485   C486    1.379   .     S
C486   C487    1.413   .     S
C487   H488    0.931   .     S
K491   O496    2.564   .     S
K491   C512    3.393   .     S
K491   O497    2.769   .     S
K491   O498    2.687   .     S
K491   O572    2.810   .     S
Sm492  O495    2.422   .     S
Sm492  O497    2.417   .     S
Sm492  O525    2.403   .     S
Sm492  O571    2.421   .     S
Sm492  O573    2.384   .     S
S493   O497    1.471   .     S
S493   O498    1.457   .     S
S493   O499    1.431   .     S
S493   C506    1.787   .     S
S494   O502    1.436   .     S
S494   O503    1.468   1_556 S
S494   O504    1.453   1_556 S
S494   C521    1.792   1_455 S
O495   C514    1.285   1_556 S
O495   Sm72    2.622   1_556 S
O496   C514    1.238   .     S
O500   C524    1.260   .     S
O500   Sm107   2.522   1_655 S
O501   C524    1.263   .     S
O501   Sm317   2.421   1_656 S
O501   Sm107   2.661   1_655 S
O503   S494    1.468   1_554 S
O504   S494    1.453   1_554 S
C505   C506    1.387   1_554 S
C505   C514    1.501   .     S
C505   C512    1.375   .     S
C506   C505    1.387   1_556 S
C506   C507    1.384   .     S
C507   H508    0.929   .     S
C507   C509    1.411   .     S
C509   C510    1.359   1_556 S
C509   C515    1.490   .     S
C510   C509    1.359   1_554 S
C510   H511    0.927   .     S
C510   C512    1.386   .     S
C512   H513    0.931   .     S
C514   O495    1.285   1_554 S
C515   C516    1.375   .     S
C515   C522    1.392   .     S
C516   H517    0.932   .     S
C516   C518    1.375   .     S
C518   H519    0.931   .     S
C518   C520    1.373   .     S
C520   C524    1.514   .     S
C520   C521    1.379   .     S
C521   S494    1.792   1_655 S
C521   C522    1.413   .     S
C522   H523    0.931   .     S
K526   O531    2.564   .     S
K526   C547    3.393   .     S
K526   O532    2.769   1_556 S
K526   O533    2.687   1_556 S
Sm527  O530    2.422   .     S
Sm527  O532    2.417   .     S
Sm527  O560    2.403   .     S
Sm527  O215    2.622   1_554 S
Sm527  O396    2.421   1_554 S
S528   O532    1.471   .     S
S528   O533    1.457   .     S
S528   O534    1.431   .     S
S528   C541    1.787   .     S
S529   O537    1.436   .     S
S529   O538    1.468   .     S
S529   O539    1.453   .     S
S529   C556    1.792   .     S
O530   C549    1.285   .     S
O531   C549    1.238   .     S
O532   K526    2.769   1_554 S
O533   K526    2.687   1_554 S
O535   C559    1.260   1_556 S
O536   C559    1.263   .     S
O536   Sm37    2.661   1_554 S
C540   C541    1.387   .     S
C540   C549    1.501   .     S
C540   C547    1.375   .     S
C541   C542    1.384   .     S
C542   H543    0.929   .     S
C542   C544    1.411   .     S
C544   C545    1.359   .     S
C544   C550    1.490   .     S
C545   H546    0.927   .     S
C545   C547    1.386   .     S
C547   H548    0.931   .     S
C550   C551    1.375   .     S
C550   C557    1.392   .     S
C551   H552    0.932   .     S
C551   C553    1.375   .     S
C553   H554    0.931   1_554 S
C553   C555    1.373   .     S
H554   C553    0.931   1_556 S
C555   C559    1.514   .     S
C555   C556    1.379   .     S
C556   C557    1.413   .     S
C557   H558    0.931   .     S
C559   O535    1.260   1_554 S
K561   O566    2.564   1_554 S
K561   C582    3.393   1_554 S
K561   O567    2.769   .     S
K561   O568    2.687   .     S
Sm562  O565    2.422   .     S
Sm562  O567    2.417   .     S
Sm562  O595    2.403   .     S
S563   O567    1.471   .     S
S563   O568    1.457   .     S
S563   O569    1.431   .     S
S563   C576    1.787   .     S
S564   O572    1.436   .     S
S564   O573    1.468   .     S
S564   O574    1.453   .     S
S564   C591    1.792   .     S
O565   C584    1.285   .     S
O566   K561    2.564   1_556 S
O566   C584    1.238   .     S
O570   C594    1.260   .     S
O571   C594    1.263   .     S
C575   C576    1.387   .     S
C575   C584    1.501   .     S
C575   C582    1.375   .     S
C576   C577    1.384   .     S
C577   H578    0.929   .     S
C577   C579    1.411   .     S
C579   C580    1.359   .     S
C579   C585    1.490   1_455 S
C580   H581    0.927   .     S
C580   C582    1.386   .     S
C582   K561    3.393   1_556 S
C582   H583    0.931   .     S
C585   C579    1.490   1_655 S
C585   C586    1.375   .     S
C585   C592    1.392   .     S
C586   H587    0.932   .     S
C586   C588    1.375   .     S
C588   H589    0.931   .     S
C588   C590    1.373   .     S
C590   C594    1.514   .     S
C590   C591    1.379   .     S
C591   C592    1.413   .     S
C592   H593    0.931   .     S
K596   O601    2.564   .     S
K596   C617    3.393   .     S
K596   O602    2.769   .     S
K596   O603    2.687   .     S
Sm597  O600    2.422   .     S
Sm597  O602    2.417   .     S
Sm597  O630    2.403   .     S
S598   O602    1.471   .     S
S598   O603    1.457   .     S
S598   O604    1.431   .     S
S598   C611    1.787   .     S
S599   O607    1.436   .     S
S599   O608    1.468   1_556 S
S599   O609    1.453   1_556 S
S599   C626    1.792   1_565 S
O600   C619    1.285   1_556 S
O600   Sm282   2.622   1_556 S
O601   C619    1.238   .     S
O605   C629    1.260   .     S
O605   Sm2     2.522   1_545 S
O606   C629    1.263   .     S
O606   Sm422   2.421   1_546 S
O606   Sm2     2.661   1_545 S
O608   S599    1.468   1_554 S
O609   S599    1.453   1_554 S
C610   C611    1.387   1_554 S
C610   C619    1.501   .     S
C610   C617    1.375   .     S
C611   C610    1.387   1_556 S
C611   C612    1.384   .     S
C612   H613    0.929   .     S
C612   C614    1.411   .     S
C614   C615    1.359   1_556 S
C614   C620    1.490   .     S
C615   C614    1.359   1_554 S
C615   H616    0.927   .     S
C615   C617    1.386   .     S
C617   H618    0.931   .     S
C619   O600    1.285   1_554 S
C620   C621    1.375   .     S
C620   C627    1.392   .     S
C621   H622    0.932   .     S
C621   C623    1.375   .     S
C623   H624    0.931   .     S
C623   C625    1.373   .     S
C625   C629    1.514   .     S
C625   C626    1.379   .     S
C626   S599    1.792   1_545 S
C626   C627    1.413   .     S
C627   H628    0.931   .     S
