data_JAVDIX_FSR
_audit_creation_date              2024-06-11
_audit_creation_method            'Materials Studio'
_symmetry_space_group_name_H-M    'P1'
_symmetry_Int_Tables_number       1
_symmetry_cell_setting            triclinic
loop_
_symmetry_equiv_pos_as_xyz
  x,y,z
_cell_length_a                    16.3780
_cell_length_b                    16.3780
_cell_length_c                    27.3760
_cell_angle_alpha                 90.0000
_cell_angle_beta                  90.0000
_cell_angle_gamma                 90.0000
loop_
_atom_site_label
_atom_site_type_symbol
_atom_site_fract_x
_atom_site_fract_y
_atom_site_fract_z
_atom_site_U_iso_or_equiv
_atom_site_adp_type
_atom_site_occupancy
Cu1    Cu    0.29728   0.77162   0.30851   0.01926  Uani   1.00
C2     C     0.30143   0.59590   0.34262   0.01990  Uani   1.00
C3     C     0.23990   0.57110   0.30506   0.04127  Uani   1.00
H4     H     0.21820   0.61890   0.28950   0.06200  Uiso   1.00
H5     H     0.19650   0.54140   0.32050   0.06200  Uiso   1.00
H6     H     0.26560   0.53700   0.28100   0.06200  Uiso   1.00
C7     C     0.43148   0.63800   0.21241   0.02753  Uani   1.00
C8     C     0.50290   0.58500   0.20021   0.05517  Uani   1.00
H9     H     0.49260   0.55670   0.17010   0.08200  Uiso   1.00
H10    H     0.51120   0.54600   0.22590   0.08200  Uiso   1.00
H11    H     0.55090   0.61820   0.19680   0.08200  Uiso   1.00
N12    N     0.34245   0.54374   0.37065   0.01693  Uani   1.00
N13    N     0.39057   0.59158   0.39872   0.01697  Uani   1.00
N14    N     0.37972   0.66847   0.38760   0.02033  Uani   1.00
N15    N     0.32276   0.67316   0.35195   0.01763  Uani   1.00
N16    N     0.36583   0.64582   0.18515   0.01877  Uani   1.00
N17    N     0.31730   0.69927   0.20876   0.01560  Uani   1.00
N18    N     0.35487   0.72328   0.24885   0.02067  Uani   1.00
N19    N     0.42699   0.68488   0.25217   0.02583  Uani   1.00
Cu20   Cu    0.79728   0.27162   0.80851   0.01926  Uani   1.00
C21    C     0.80143   0.09590   0.84262   0.01990  Uani   1.00
C22    C     0.73990   0.07110   0.80506   0.04127  Uani   1.00
H23    H     0.71820   0.11890   0.78950   0.06200  Uiso   1.00
H24    H     0.69650   0.04140   0.82050   0.06200  Uiso   1.00
H25    H     0.76560   0.03700   0.78100   0.06200  Uiso   1.00
C26    C     0.93148   0.13800   0.71241   0.02753  Uani   1.00
C27    C     0.00290   0.08500   0.70021   0.05517  Uani   1.00
H28    H     0.99260   0.05670   0.67010   0.08200  Uiso   1.00
H29    H     0.01120   0.04600   0.72590   0.08200  Uiso   1.00
H30    H     0.05090   0.11820   0.69680   0.08200  Uiso   1.00
N31    N     0.84245   0.04374   0.87065   0.01693  Uani   1.00
N32    N     0.89057   0.09158   0.89872   0.01697  Uani   1.00
N33    N     0.87972   0.16847   0.88760   0.02033  Uani   1.00
N34    N     0.82276   0.17316   0.85195   0.01763  Uani   1.00
N35    N     0.86583   0.14582   0.68515   0.01877  Uani   1.00
N36    N     0.81730   0.19927   0.70876   0.01560  Uani   1.00
N37    N     0.85487   0.22328   0.74885   0.02067  Uani   1.00
N38    N     0.92699   0.18488   0.75217   0.02583  Uani   1.00
Cu39   Cu    0.20272   0.22838   0.80851   0.01926  Uani   1.00
C40    C     0.19857   0.40410   0.84262   0.01990  Uani   1.00
C41    C     0.26010   0.42890   0.80506   0.04127  Uani   1.00
H42    H     0.28180   0.38110   0.78950   0.06200  Uiso   1.00
H43    H     0.30350   0.45860   0.82050   0.06200  Uiso   1.00
H44    H     0.23440   0.46300   0.78100   0.06200  Uiso   1.00
C45    C     0.06852   0.36200   0.71241   0.02753  Uani   1.00
C46    C     0.99710   0.41500   0.70021   0.05517  Uani   1.00
H47    H     0.00740   0.44330   0.67010   0.08200  Uiso   1.00
H48    H     0.98880   0.45400   0.72590   0.08200  Uiso   1.00
H49    H     0.94910   0.38180   0.69680   0.08200  Uiso   1.00
N50    N     0.15755   0.45626   0.87065   0.01693  Uani   1.00
N51    N     0.10943   0.40842   0.89872   0.01697  Uani   1.00
N52    N     0.12028   0.33153   0.88760   0.02033  Uani   1.00
N53    N     0.17724   0.32684   0.85195   0.01763  Uani   1.00
N54    N     0.13417   0.35418   0.68515   0.01877  Uani   1.00
N55    N     0.18270   0.30073   0.70876   0.01560  Uani   1.00
N56    N     0.14513   0.27672   0.74885   0.02067  Uani   1.00
N57    N     0.07301   0.31512   0.75217   0.02583  Uani   1.00
Cu58   Cu    0.70272   0.72838   0.30851   0.01926  Uani   1.00
C59    C     0.69857   0.90410   0.34262   0.01990  Uani   1.00
C60    C     0.76010   0.92890   0.30506   0.04127  Uani   1.00
H61    H     0.78180   0.88110   0.28950   0.06200  Uiso   1.00
H62    H     0.80350   0.95860   0.32050   0.06200  Uiso   1.00
H63    H     0.73440   0.96300   0.28100   0.06200  Uiso   1.00
C64    C     0.56852   0.86200   0.21241   0.02753  Uani   1.00
C65    C     0.49710   0.91500   0.20021   0.05517  Uani   1.00
H66    H     0.50740   0.94330   0.17010   0.08200  Uiso   1.00
H67    H     0.48880   0.95400   0.22590   0.08200  Uiso   1.00
H68    H     0.44910   0.88180   0.19680   0.08200  Uiso   1.00
N69    N     0.65755   0.95626   0.37065   0.01693  Uani   1.00
N70    N     0.60943   0.90842   0.39872   0.01697  Uani   1.00
N71    N     0.62028   0.83153   0.38760   0.02033  Uani   1.00
N72    N     0.67724   0.82684   0.35195   0.01763  Uani   1.00
N73    N     0.63417   0.85418   0.18515   0.01877  Uani   1.00
N74    N     0.68270   0.80073   0.20876   0.01560  Uani   1.00
N75    N     0.64513   0.77672   0.24885   0.02067  Uani   1.00
N76    N     0.57301   0.81512   0.25217   0.02583  Uani   1.00
Cu77   Cu    0.47838   0.04728   0.55851   0.01926  Uani   1.00
C78    C     0.65410   0.05143   0.59262   0.01990  Uani   1.00
C79    C     0.67890   0.98990   0.55506   0.04127  Uani   1.00
H80    H     0.63110   0.96820   0.53950   0.06200  Uiso   1.00
H81    H     0.70860   0.94650   0.57050   0.06200  Uiso   1.00
H82    H     0.71300   0.01560   0.53100   0.06200  Uiso   1.00
C83    C     0.61200   0.18148   0.46241   0.02753  Uani   1.00
C84    C     0.66500   0.25290   0.45021   0.05517  Uani   1.00
H85    H     0.69330   0.24260   0.42010   0.08200  Uiso   1.00
H86    H     0.70400   0.26120   0.47590   0.08200  Uiso   1.00
H87    H     0.63180   0.30090   0.44680   0.08200  Uiso   1.00
N88    N     0.70626   0.09245   0.62065   0.01693  Uani   1.00
N89    N     0.65842   0.14057   0.64872   0.01697  Uani   1.00
N90    N     0.58153   0.12972   0.63760   0.02033  Uani   1.00
N91    N     0.57684   0.07276   0.60195   0.01763  Uani   1.00
N92    N     0.60418   0.11583   0.43515   0.01877  Uani   1.00
N93    N     0.55073   0.06730   0.45876   0.01560  Uani   1.00
N94    N     0.52672   0.10487   0.49885   0.02067  Uani   1.00
N95    N     0.56512   0.17699   0.50217   0.02583  Uani   1.00
Cu96   Cu    0.97838   0.54728   0.05851   0.01926  Uani   1.00
C97    C     0.15410   0.55143   0.09262   0.01990  Uani   1.00
C98    C     0.17890   0.48990   0.05506   0.04127  Uani   1.00
H99    H     0.13110   0.46820   0.03950   0.06200  Uiso   1.00
H100   H     0.20860   0.44650   0.07050   0.06200  Uiso   1.00
H101   H     0.21300   0.51560   0.03100   0.06200  Uiso   1.00
C102   C     0.11200   0.68148   0.96241   0.02753  Uani   1.00
C103   C     0.16500   0.75290   0.95021   0.05517  Uani   1.00
H104   H     0.19330   0.74260   0.92010   0.08200  Uiso   1.00
H105   H     0.20400   0.76120   0.97590   0.08200  Uiso   1.00
H106   H     0.13180   0.80090   0.94680   0.08200  Uiso   1.00
N107   N     0.20626   0.59245   0.12065   0.01693  Uani   1.00
N108   N     0.15842   0.64057   0.14872   0.01697  Uani   1.00
N109   N     0.08153   0.62972   0.13760   0.02033  Uani   1.00
N110   N     0.07684   0.57276   0.10195   0.01763  Uani   1.00
N111   N     0.10418   0.61583   0.93515   0.01877  Uani   1.00
N112   N     0.05073   0.56730   0.95876   0.01560  Uani   1.00
N113   N     0.02672   0.60487   0.99885   0.02067  Uani   1.00
N114   N     0.06512   0.67699   0.00217   0.02583  Uani   1.00
Cu115  Cu    0.02162   0.95272   0.05851   0.01926  Uani   1.00
C116   C     0.84590   0.94857   0.09262   0.01990  Uani   1.00
C117   C     0.82110   0.01010   0.05506   0.04127  Uani   1.00
H118   H     0.86890   0.03180   0.03950   0.06200  Uiso   1.00
H119   H     0.79140   0.05350   0.07050   0.06200  Uiso   1.00
H120   H     0.78700   0.98440   0.03100   0.06200  Uiso   1.00
C121   C     0.88800   0.81852   0.96241   0.02753  Uani   1.00
C122   C     0.83500   0.74710   0.95021   0.05517  Uani   1.00
H123   H     0.80670   0.75740   0.92010   0.08200  Uiso   1.00
H124   H     0.79600   0.73880   0.97590   0.08200  Uiso   1.00
H125   H     0.86820   0.69910   0.94680   0.08200  Uiso   1.00
N126   N     0.79374   0.90755   0.12065   0.01693  Uani   1.00
N127   N     0.84158   0.85943   0.14872   0.01697  Uani   1.00
N128   N     0.91847   0.87028   0.13760   0.02033  Uani   1.00
N129   N     0.92316   0.92724   0.10195   0.01763  Uani   1.00
N130   N     0.89582   0.88417   0.93515   0.01877  Uani   1.00
N131   N     0.94927   0.93270   0.95876   0.01560  Uani   1.00
N132   N     0.97328   0.89513   0.99885   0.02067  Uani   1.00
N133   N     0.93488   0.82301   0.00217   0.02583  Uani   1.00
Cu134  Cu    0.52162   0.45272   0.55851   0.01926  Uani   1.00
C135   C     0.34590   0.44857   0.59262   0.01990  Uani   1.00
C136   C     0.32110   0.51010   0.55506   0.04127  Uani   1.00
H137   H     0.36890   0.53180   0.53950   0.06200  Uiso   1.00
H138   H     0.29140   0.55350   0.57050   0.06200  Uiso   1.00
H139   H     0.28700   0.48440   0.53100   0.06200  Uiso   1.00
C140   C     0.38800   0.31852   0.46241   0.02753  Uani   1.00
C141   C     0.33500   0.24710   0.45021   0.05517  Uani   1.00
H142   H     0.30670   0.25740   0.42010   0.08200  Uiso   1.00
H143   H     0.29600   0.23880   0.47590   0.08200  Uiso   1.00
H144   H     0.36820   0.19910   0.44680   0.08200  Uiso   1.00
N145   N     0.29374   0.40755   0.62065   0.01693  Uani   1.00
N146   N     0.34158   0.35943   0.64872   0.01697  Uani   1.00
N147   N     0.41847   0.37028   0.63760   0.02033  Uani   1.00
N148   N     0.42316   0.42724   0.60195   0.01763  Uani   1.00
N149   N     0.39582   0.38417   0.43515   0.01877  Uani   1.00
N150   N     0.44927   0.43270   0.45876   0.01560  Uani   1.00
N151   N     0.47328   0.39513   0.49885   0.02067  Uani   1.00
N152   N     0.43488   0.32301   0.50217   0.02583  Uani   1.00
Cu153  Cu    0.20272   0.77162   0.69149   0.01926  Uani   1.00
C154   C     0.19857   0.59590   0.65738   0.01990  Uani   1.00
C155   C     0.26010   0.57110   0.69494   0.04127  Uani   1.00
H156   H     0.28180   0.61890   0.71050   0.06200  Uiso   1.00
H157   H     0.30350   0.54140   0.67950   0.06200  Uiso   1.00
H158   H     0.23440   0.53700   0.71900   0.06200  Uiso   1.00
C159   C     0.06852   0.63800   0.78759   0.02753  Uani   1.00
C160   C     0.99710   0.58500   0.79979   0.05517  Uani   1.00
H161   H     0.00740   0.55670   0.82990   0.08200  Uiso   1.00
H162   H     0.98880   0.54600   0.77410   0.08200  Uiso   1.00
H163   H     0.94910   0.61820   0.80320   0.08200  Uiso   1.00
N164   N     0.15755   0.54374   0.62935   0.01693  Uani   1.00
N165   N     0.10943   0.59158   0.60128   0.01697  Uani   1.00
N166   N     0.12028   0.66847   0.61240   0.02033  Uani   1.00
N167   N     0.17724   0.67316   0.64805   0.01763  Uani   1.00
N168   N     0.13417   0.64582   0.81485   0.01877  Uani   1.00
N169   N     0.18270   0.69927   0.79124   0.01560  Uani   1.00
N170   N     0.14513   0.72328   0.75115   0.02067  Uani   1.00
N171   N     0.07301   0.68488   0.74783   0.02583  Uani   1.00
Cu172  Cu    0.70272   0.27162   0.19149   0.01926  Uani   1.00
C173   C     0.69857   0.09590   0.15738   0.01990  Uani   1.00
C174   C     0.76010   0.07110   0.19494   0.04127  Uani   1.00
H175   H     0.78180   0.11890   0.21050   0.06200  Uiso   1.00
H176   H     0.80350   0.04140   0.17950   0.06200  Uiso   1.00
H177   H     0.73440   0.03700   0.21900   0.06200  Uiso   1.00
C178   C     0.56852   0.13800   0.28759   0.02753  Uani   1.00
C179   C     0.49710   0.08500   0.29979   0.05517  Uani   1.00
H180   H     0.50740   0.05670   0.32990   0.08200  Uiso   1.00
H181   H     0.48880   0.04600   0.27410   0.08200  Uiso   1.00
H182   H     0.44910   0.11820   0.30320   0.08200  Uiso   1.00
N183   N     0.65755   0.04374   0.12935   0.01693  Uani   1.00
N184   N     0.60943   0.09158   0.10128   0.01697  Uani   1.00
N185   N     0.62028   0.16847   0.11240   0.02033  Uani   1.00
N186   N     0.67724   0.17316   0.14805   0.01763  Uani   1.00
N187   N     0.63417   0.14582   0.31485   0.01877  Uani   1.00
N188   N     0.68270   0.19927   0.29124   0.01560  Uani   1.00
N189   N     0.64513   0.22328   0.25115   0.02067  Uani   1.00
N190   N     0.57301   0.18488   0.24783   0.02583  Uani   1.00
Cu191  Cu    0.29728   0.22838   0.19149   0.01926  Uani   1.00
C192   C     0.30143   0.40410   0.15738   0.01990  Uani   1.00
C193   C     0.23990   0.42890   0.19494   0.04127  Uani   1.00
H194   H     0.21820   0.38110   0.21050   0.06200  Uiso   1.00
H195   H     0.19650   0.45860   0.17950   0.06200  Uiso   1.00
H196   H     0.26560   0.46300   0.21900   0.06200  Uiso   1.00
C197   C     0.43148   0.36200   0.28759   0.02753  Uani   1.00
C198   C     0.50290   0.41500   0.29979   0.05517  Uani   1.00
H199   H     0.49260   0.44330   0.32990   0.08200  Uiso   1.00
H200   H     0.51120   0.45400   0.27410   0.08200  Uiso   1.00
H201   H     0.55090   0.38180   0.30320   0.08200  Uiso   1.00
N202   N     0.34245   0.45626   0.12935   0.01693  Uani   1.00
N203   N     0.39057   0.40842   0.10128   0.01697  Uani   1.00
N204   N     0.37972   0.33153   0.11240   0.02033  Uani   1.00
N205   N     0.32276   0.32684   0.14805   0.01763  Uani   1.00
N206   N     0.36583   0.35418   0.31485   0.01877  Uani   1.00
N207   N     0.31730   0.30073   0.29124   0.01560  Uani   1.00
N208   N     0.35487   0.27672   0.25115   0.02067  Uani   1.00
N209   N     0.42699   0.31512   0.24783   0.02583  Uani   1.00
Cu210  Cu    0.79728   0.72838   0.69149   0.01926  Uani   1.00
C211   C     0.80143   0.90410   0.65738   0.01990  Uani   1.00
C212   C     0.73990   0.92890   0.69494   0.04127  Uani   1.00
H213   H     0.71820   0.88110   0.71050   0.06200  Uiso   1.00
H214   H     0.69650   0.95860   0.67950   0.06200  Uiso   1.00
H215   H     0.76560   0.96300   0.71900   0.06200  Uiso   1.00
C216   C     0.93148   0.86200   0.78759   0.02753  Uani   1.00
C217   C     0.00290   0.91500   0.79979   0.05517  Uani   1.00
H218   H     0.99260   0.94330   0.82990   0.08200  Uiso   1.00
H219   H     0.01120   0.95400   0.77410   0.08200  Uiso   1.00
H220   H     0.05090   0.88180   0.80320   0.08200  Uiso   1.00
N221   N     0.84245   0.95626   0.62935   0.01693  Uani   1.00
N222   N     0.89057   0.90842   0.60128   0.01697  Uani   1.00
N223   N     0.87972   0.83153   0.61240   0.02033  Uani   1.00
N224   N     0.82276   0.82684   0.64805   0.01763  Uani   1.00
N225   N     0.86583   0.85418   0.81485   0.01877  Uani   1.00
N226   N     0.81730   0.80073   0.79124   0.01560  Uani   1.00
N227   N     0.85487   0.77672   0.75115   0.02067  Uani   1.00
N228   N     0.92699   0.81512   0.74783   0.02583  Uani   1.00
Cu229  Cu    0.02162   0.04728   0.44149   0.01926  Uani   1.00
C230   C     0.84590   0.05143   0.40738   0.01990  Uani   1.00
C231   C     0.82110   0.98990   0.44494   0.04127  Uani   1.00
H232   H     0.86890   0.96820   0.46050   0.06200  Uiso   1.00
H233   H     0.79140   0.94650   0.42950   0.06200  Uiso   1.00
H234   H     0.78700   0.01560   0.46900   0.06200  Uiso   1.00
C235   C     0.88800   0.18148   0.53759   0.02753  Uani   1.00
C236   C     0.83500   0.25290   0.54979   0.05517  Uani   1.00
H237   H     0.80670   0.24260   0.57990   0.08200  Uiso   1.00
H238   H     0.79600   0.26120   0.52410   0.08200  Uiso   1.00
H239   H     0.86820   0.30090   0.55320   0.08200  Uiso   1.00
N240   N     0.79374   0.09245   0.37935   0.01693  Uani   1.00
N241   N     0.84158   0.14057   0.35128   0.01697  Uani   1.00
N242   N     0.91847   0.12972   0.36240   0.02033  Uani   1.00
N243   N     0.92316   0.07276   0.39805   0.01763  Uani   1.00
N244   N     0.89582   0.11583   0.56485   0.01877  Uani   1.00
N245   N     0.94927   0.06730   0.54124   0.01560  Uani   1.00
N246   N     0.97328   0.10487   0.50115   0.02067  Uani   1.00
N247   N     0.93488   0.17699   0.49783   0.02583  Uani   1.00
Cu248  Cu    0.52162   0.54728   0.94149   0.01926  Uani   1.00
C249   C     0.34590   0.55143   0.90738   0.01990  Uani   1.00
C250   C     0.32110   0.48990   0.94494   0.04127  Uani   1.00
H251   H     0.36890   0.46820   0.96050   0.06200  Uiso   1.00
H252   H     0.29140   0.44650   0.92950   0.06200  Uiso   1.00
H253   H     0.28700   0.51560   0.96900   0.06200  Uiso   1.00
C254   C     0.38800   0.68148   0.03759   0.02753  Uani   1.00
C255   C     0.33500   0.75290   0.04979   0.05517  Uani   1.00
H256   H     0.30670   0.74260   0.07990   0.08200  Uiso   1.00
H257   H     0.29600   0.76120   0.02410   0.08200  Uiso   1.00
H258   H     0.36820   0.80090   0.05320   0.08200  Uiso   1.00
N259   N     0.29374   0.59245   0.87935   0.01693  Uani   1.00
N260   N     0.34158   0.64057   0.85128   0.01697  Uani   1.00
N261   N     0.41847   0.62972   0.86240   0.02033  Uani   1.00
N262   N     0.42316   0.57276   0.89805   0.01763  Uani   1.00
N263   N     0.39582   0.61583   0.06485   0.01877  Uani   1.00
N264   N     0.44927   0.56730   0.04124   0.01560  Uani   1.00
N265   N     0.47328   0.60487   0.00115   0.02067  Uani   1.00
N266   N     0.43488   0.67699   0.99783   0.02583  Uani   1.00
Cu267  Cu    0.47838   0.95272   0.94149   0.01926  Uani   1.00
C268   C     0.65410   0.94857   0.90738   0.01990  Uani   1.00
C269   C     0.67890   0.01010   0.94494   0.04127  Uani   1.00
H270   H     0.63110   0.03180   0.96050   0.06200  Uiso   1.00
H271   H     0.70860   0.05350   0.92950   0.06200  Uiso   1.00
H272   H     0.71300   0.98440   0.96900   0.06200  Uiso   1.00
C273   C     0.61200   0.81852   0.03759   0.02753  Uani   1.00
C274   C     0.66500   0.74710   0.04979   0.05517  Uani   1.00
H275   H     0.69330   0.75740   0.07990   0.08200  Uiso   1.00
H276   H     0.70400   0.73880   0.02410   0.08200  Uiso   1.00
H277   H     0.63180   0.69910   0.05320   0.08200  Uiso   1.00
N278   N     0.70626   0.90755   0.87935   0.01693  Uani   1.00
N279   N     0.65842   0.85943   0.85128   0.01697  Uani   1.00
N280   N     0.58153   0.87028   0.86240   0.02033  Uani   1.00
N281   N     0.57684   0.92724   0.89805   0.01763  Uani   1.00
N282   N     0.60418   0.88417   0.06485   0.01877  Uani   1.00
N283   N     0.55073   0.93270   0.04124   0.01560  Uani   1.00
N284   N     0.52672   0.89513   0.00115   0.02067  Uani   1.00
N285   N     0.56512   0.82301   0.99783   0.02583  Uani   1.00
Cu286  Cu    0.97838   0.45272   0.44149   0.01926  Uani   1.00
C287   C     0.15410   0.44857   0.40738   0.01990  Uani   1.00
C288   C     0.17890   0.51010   0.44494   0.04127  Uani   1.00
H289   H     0.13110   0.53180   0.46050   0.06200  Uiso   1.00
H290   H     0.20860   0.55350   0.42950   0.06200  Uiso   1.00
H291   H     0.21300   0.48440   0.46900   0.06200  Uiso   1.00
C292   C     0.11200   0.31852   0.53759   0.02753  Uani   1.00
C293   C     0.16500   0.24710   0.54979   0.05517  Uani   1.00
H294   H     0.19330   0.25740   0.57990   0.08200  Uiso   1.00
H295   H     0.20400   0.23880   0.52410   0.08200  Uiso   1.00
H296   H     0.13180   0.19910   0.55320   0.08200  Uiso   1.00
N297   N     0.20626   0.40755   0.37935   0.01693  Uani   1.00
N298   N     0.15842   0.35943   0.35128   0.01697  Uani   1.00
N299   N     0.08153   0.37028   0.36240   0.02033  Uani   1.00
N300   N     0.07684   0.42724   0.39805   0.01763  Uani   1.00
N301   N     0.10418   0.38417   0.56485   0.01877  Uani   1.00
N302   N     0.05073   0.43270   0.54124   0.01560  Uani   1.00
N303   N     0.02672   0.39513   0.50115   0.02067  Uani   1.00
N304   N     0.06512   0.32301   0.49783   0.02583  Uani   1.00
Cu305  Cu    0.70272   0.22838   0.69149   0.01926  Uani   1.00
C306   C     0.69857   0.40410   0.65738   0.01990  Uani   1.00
C307   C     0.76010   0.42890   0.69494   0.04127  Uani   1.00
H308   H     0.78180   0.38110   0.71050   0.06200  Uiso   1.00
H309   H     0.80350   0.45860   0.67950   0.06200  Uiso   1.00
H310   H     0.73440   0.46300   0.71900   0.06200  Uiso   1.00
C311   C     0.56852   0.36200   0.78759   0.02753  Uani   1.00
C312   C     0.49710   0.41500   0.79979   0.05517  Uani   1.00
H313   H     0.50740   0.44330   0.82990   0.08200  Uiso   1.00
H314   H     0.48880   0.45400   0.77410   0.08200  Uiso   1.00
H315   H     0.44910   0.38180   0.80320   0.08200  Uiso   1.00
N316   N     0.65755   0.45626   0.62935   0.01693  Uani   1.00
N317   N     0.60943   0.40842   0.60128   0.01697  Uani   1.00
N318   N     0.62028   0.33153   0.61240   0.02033  Uani   1.00
N319   N     0.67724   0.32684   0.64805   0.01763  Uani   1.00
N320   N     0.63417   0.35418   0.81485   0.01877  Uani   1.00
N321   N     0.68270   0.30073   0.79124   0.01560  Uani   1.00
N322   N     0.64513   0.27672   0.75115   0.02067  Uani   1.00
N323   N     0.57301   0.31512   0.74783   0.02583  Uani   1.00
Cu324  Cu    0.20272   0.72838   0.19149   0.01926  Uani   1.00
C325   C     0.19857   0.90410   0.15738   0.01990  Uani   1.00
C326   C     0.26010   0.92890   0.19494   0.04127  Uani   1.00
H327   H     0.28180   0.88110   0.21050   0.06200  Uiso   1.00
H328   H     0.30350   0.95860   0.17950   0.06200  Uiso   1.00
H329   H     0.23440   0.96300   0.21900   0.06200  Uiso   1.00
C330   C     0.06852   0.86200   0.28759   0.02753  Uani   1.00
C331   C     0.99710   0.91500   0.29979   0.05517  Uani   1.00
H332   H     0.00740   0.94330   0.32990   0.08200  Uiso   1.00
H333   H     0.98880   0.95400   0.27410   0.08200  Uiso   1.00
H334   H     0.94910   0.88180   0.30320   0.08200  Uiso   1.00
N335   N     0.15755   0.95626   0.12935   0.01693  Uani   1.00
N336   N     0.10943   0.90842   0.10128   0.01697  Uani   1.00
N337   N     0.12028   0.83153   0.11240   0.02033  Uani   1.00
N338   N     0.17724   0.82684   0.14805   0.01763  Uani   1.00
N339   N     0.13417   0.85418   0.31485   0.01877  Uani   1.00
N340   N     0.18270   0.80073   0.29124   0.01560  Uani   1.00
N341   N     0.14513   0.77672   0.25115   0.02067  Uani   1.00
N342   N     0.07301   0.81512   0.24783   0.02583  Uani   1.00
Cu343  Cu    0.79728   0.77162   0.19149   0.01926  Uani   1.00
C344   C     0.80143   0.59590   0.15738   0.01990  Uani   1.00
C345   C     0.73990   0.57110   0.19494   0.04127  Uani   1.00
H346   H     0.71820   0.61890   0.21050   0.06200  Uiso   1.00
H347   H     0.69650   0.54140   0.17950   0.06200  Uiso   1.00
H348   H     0.76560   0.53700   0.21900   0.06200  Uiso   1.00
C349   C     0.93148   0.63800   0.28759   0.02753  Uani   1.00
C350   C     0.00290   0.58500   0.29979   0.05517  Uani   1.00
H351   H     0.99260   0.55670   0.32990   0.08200  Uiso   1.00
H352   H     0.01120   0.54600   0.27410   0.08200  Uiso   1.00
H353   H     0.05090   0.61820   0.30320   0.08200  Uiso   1.00
N354   N     0.84245   0.54374   0.12935   0.01693  Uani   1.00
N355   N     0.89057   0.59158   0.10128   0.01697  Uani   1.00
N356   N     0.87972   0.66847   0.11240   0.02033  Uani   1.00
N357   N     0.82276   0.67316   0.14805   0.01763  Uani   1.00
N358   N     0.86583   0.64582   0.31485   0.01877  Uani   1.00
N359   N     0.81730   0.69927   0.29124   0.01560  Uani   1.00
N360   N     0.85487   0.72328   0.25115   0.02067  Uani   1.00
N361   N     0.92699   0.68488   0.24783   0.02583  Uani   1.00
Cu362  Cu    0.29728   0.27162   0.69149   0.01926  Uani   1.00
C363   C     0.30143   0.09590   0.65738   0.01990  Uani   1.00
C364   C     0.23990   0.07110   0.69494   0.04127  Uani   1.00
H365   H     0.21820   0.11890   0.71050   0.06200  Uiso   1.00
H366   H     0.19650   0.04140   0.67950   0.06200  Uiso   1.00
H367   H     0.26560   0.03700   0.71900   0.06200  Uiso   1.00
C368   C     0.43148   0.13800   0.78759   0.02753  Uani   1.00
C369   C     0.50290   0.08500   0.79979   0.05517  Uani   1.00
H370   H     0.49260   0.05670   0.82990   0.08200  Uiso   1.00
H371   H     0.51120   0.04600   0.77410   0.08200  Uiso   1.00
H372   H     0.55090   0.11820   0.80320   0.08200  Uiso   1.00
N373   N     0.34245   0.04374   0.62935   0.01693  Uani   1.00
N374   N     0.39057   0.09158   0.60128   0.01697  Uani   1.00
N375   N     0.37972   0.16847   0.61240   0.02033  Uani   1.00
N376   N     0.32276   0.17316   0.64805   0.01763  Uani   1.00
N377   N     0.36583   0.14582   0.81485   0.01877  Uani   1.00
N378   N     0.31730   0.19927   0.79124   0.01560  Uani   1.00
N379   N     0.35487   0.22328   0.75115   0.02067  Uani   1.00
N380   N     0.42699   0.18488   0.74783   0.02583  Uani   1.00
Cu381  Cu    0.52162   0.95272   0.44149   0.01926  Uani   1.00
C382   C     0.34590   0.94857   0.40738   0.01990  Uani   1.00
C383   C     0.32110   0.01010   0.44494   0.04127  Uani   1.00
H384   H     0.36890   0.03180   0.46050   0.06200  Uiso   1.00
H385   H     0.29140   0.05350   0.42950   0.06200  Uiso   1.00
H386   H     0.28700   0.98440   0.46900   0.06200  Uiso   1.00
C387   C     0.38800   0.81852   0.53759   0.02753  Uani   1.00
C388   C     0.33500   0.74710   0.54979   0.05517  Uani   1.00
H389   H     0.30670   0.75740   0.57990   0.08200  Uiso   1.00
H390   H     0.29600   0.73880   0.52410   0.08200  Uiso   1.00
H391   H     0.36820   0.69910   0.55320   0.08200  Uiso   1.00
N392   N     0.29374   0.90755   0.37935   0.01693  Uani   1.00
N393   N     0.34158   0.85943   0.35128   0.01697  Uani   1.00
N394   N     0.41847   0.87028   0.36240   0.02033  Uani   1.00
N395   N     0.42316   0.92724   0.39805   0.01763  Uani   1.00
N396   N     0.39582   0.88417   0.56485   0.01877  Uani   1.00
N397   N     0.44927   0.93270   0.54124   0.01560  Uani   1.00
N398   N     0.47328   0.89513   0.50115   0.02067  Uani   1.00
N399   N     0.43488   0.82301   0.49783   0.02583  Uani   1.00
Cu400  Cu    0.02162   0.45272   0.94149   0.01926  Uani   1.00
C401   C     0.84590   0.44857   0.90738   0.01990  Uani   1.00
C402   C     0.82110   0.51010   0.94494   0.04127  Uani   1.00
H403   H     0.86890   0.53180   0.96050   0.06200  Uiso   1.00
H404   H     0.79140   0.55350   0.92950   0.06200  Uiso   1.00
H405   H     0.78700   0.48440   0.96900   0.06200  Uiso   1.00
C406   C     0.88800   0.31852   0.03759   0.02753  Uani   1.00
C407   C     0.83500   0.24710   0.04979   0.05517  Uani   1.00
H408   H     0.80670   0.25740   0.07990   0.08200  Uiso   1.00
H409   H     0.79600   0.23880   0.02410   0.08200  Uiso   1.00
H410   H     0.86820   0.19910   0.05320   0.08200  Uiso   1.00
N411   N     0.79374   0.40755   0.87935   0.01693  Uani   1.00
N412   N     0.84158   0.35943   0.85128   0.01697  Uani   1.00
N413   N     0.91847   0.37028   0.86240   0.02033  Uani   1.00
N414   N     0.92316   0.42724   0.89805   0.01763  Uani   1.00
N415   N     0.89582   0.38417   0.06485   0.01877  Uani   1.00
N416   N     0.94927   0.43270   0.04124   0.01560  Uani   1.00
N417   N     0.97328   0.39513   0.00115   0.02067  Uani   1.00
N418   N     0.93488   0.32301   0.99783   0.02583  Uani   1.00
Cu419  Cu    0.97838   0.04728   0.94149   0.01926  Uani   1.00
C420   C     0.15410   0.05143   0.90738   0.01990  Uani   1.00
C421   C     0.17890   0.98990   0.94494   0.04127  Uani   1.00
H422   H     0.13110   0.96820   0.96050   0.06200  Uiso   1.00
H423   H     0.20860   0.94650   0.92950   0.06200  Uiso   1.00
H424   H     0.21300   0.01560   0.96900   0.06200  Uiso   1.00
C425   C     0.11200   0.18148   0.03759   0.02753  Uani   1.00
C426   C     0.16500   0.25290   0.04979   0.05517  Uani   1.00
H427   H     0.19330   0.24260   0.07990   0.08200  Uiso   1.00
H428   H     0.20400   0.26120   0.02410   0.08200  Uiso   1.00
H429   H     0.13180   0.30090   0.05320   0.08200  Uiso   1.00
N430   N     0.20626   0.09245   0.87935   0.01693  Uani   1.00
N431   N     0.15842   0.14057   0.85128   0.01697  Uani   1.00
N432   N     0.08153   0.12972   0.86240   0.02033  Uani   1.00
N433   N     0.07684   0.07276   0.89805   0.01763  Uani   1.00
N434   N     0.10418   0.11583   0.06485   0.01877  Uani   1.00
N435   N     0.05073   0.06730   0.04124   0.01560  Uani   1.00
N436   N     0.02672   0.10487   0.00115   0.02067  Uani   1.00
N437   N     0.06512   0.17699   0.99783   0.02583  Uani   1.00
Cu438  Cu    0.47838   0.54728   0.44149   0.01926  Uani   1.00
C439   C     0.65410   0.55143   0.40738   0.01990  Uani   1.00
C440   C     0.67890   0.48990   0.44494   0.04127  Uani   1.00
H441   H     0.63110   0.46820   0.46050   0.06200  Uiso   1.00
H442   H     0.70860   0.44650   0.42950   0.06200  Uiso   1.00
H443   H     0.71300   0.51560   0.46900   0.06200  Uiso   1.00
C444   C     0.61200   0.68148   0.53759   0.02753  Uani   1.00
C445   C     0.66500   0.75290   0.54979   0.05517  Uani   1.00
H446   H     0.69330   0.74260   0.57990   0.08200  Uiso   1.00
H447   H     0.70400   0.76120   0.52410   0.08200  Uiso   1.00
H448   H     0.63180   0.80090   0.55320   0.08200  Uiso   1.00
N449   N     0.70626   0.59245   0.37935   0.01693  Uani   1.00
N450   N     0.65842   0.64057   0.35128   0.01697  Uani   1.00
N451   N     0.58153   0.62972   0.36240   0.02033  Uani   1.00
N452   N     0.57684   0.57276   0.39805   0.01763  Uani   1.00
N453   N     0.60418   0.61583   0.56485   0.01877  Uani   1.00
N454   N     0.55073   0.56730   0.54124   0.01560  Uani   1.00
N455   N     0.52672   0.60487   0.50115   0.02067  Uani   1.00
N456   N     0.56512   0.67699   0.49783   0.02583  Uani   1.00
Cu457  Cu    0.79728   0.22838   0.30851   0.01926  Uani   1.00
C458   C     0.80143   0.40410   0.34262   0.01990  Uani   1.00
C459   C     0.73990   0.42890   0.30506   0.04127  Uani   1.00
H460   H     0.71820   0.38110   0.28950   0.06200  Uiso   1.00
H461   H     0.69650   0.45860   0.32050   0.06200  Uiso   1.00
H462   H     0.76560   0.46300   0.28100   0.06200  Uiso   1.00
C463   C     0.93148   0.36200   0.21241   0.02753  Uani   1.00
C464   C     0.00290   0.41500   0.20021   0.05517  Uani   1.00
H465   H     0.99260   0.44330   0.17010   0.08200  Uiso   1.00
H466   H     0.01120   0.45400   0.22590   0.08200  Uiso   1.00
H467   H     0.05090   0.38180   0.19680   0.08200  Uiso   1.00
N468   N     0.84245   0.45626   0.37065   0.01693  Uani   1.00
N469   N     0.89057   0.40842   0.39872   0.01697  Uani   1.00
N470   N     0.87972   0.33153   0.38760   0.02033  Uani   1.00
N471   N     0.82276   0.32684   0.35195   0.01763  Uani   1.00
N472   N     0.86583   0.35418   0.18515   0.01877  Uani   1.00
N473   N     0.81730   0.30073   0.20876   0.01560  Uani   1.00
N474   N     0.85487   0.27672   0.24885   0.02067  Uani   1.00
N475   N     0.92699   0.31512   0.25217   0.02583  Uani   1.00
Cu476  Cu    0.29728   0.72838   0.80851   0.01926  Uani   1.00
C477   C     0.30143   0.90410   0.84262   0.01990  Uani   1.00
C478   C     0.23990   0.92890   0.80506   0.04127  Uani   1.00
H479   H     0.21820   0.88110   0.78950   0.06200  Uiso   1.00
H480   H     0.19650   0.95860   0.82050   0.06200  Uiso   1.00
H481   H     0.26560   0.96300   0.78100   0.06200  Uiso   1.00
C482   C     0.43148   0.86200   0.71241   0.02753  Uani   1.00
C483   C     0.50290   0.91500   0.70021   0.05517  Uani   1.00
H484   H     0.49260   0.94330   0.67010   0.08200  Uiso   1.00
H485   H     0.51120   0.95400   0.72590   0.08200  Uiso   1.00
H486   H     0.55090   0.88180   0.69680   0.08200  Uiso   1.00
N487   N     0.34245   0.95626   0.87065   0.01693  Uani   1.00
N488   N     0.39057   0.90842   0.89872   0.01697  Uani   1.00
N489   N     0.37972   0.83153   0.88760   0.02033  Uani   1.00
N490   N     0.32276   0.82684   0.85195   0.01763  Uani   1.00
N491   N     0.36583   0.85418   0.68515   0.01877  Uani   1.00
N492   N     0.31730   0.80073   0.70876   0.01560  Uani   1.00
N493   N     0.35487   0.77672   0.74885   0.02067  Uani   1.00
N494   N     0.42699   0.81512   0.75217   0.02583  Uani   1.00
Cu495  Cu    0.70272   0.77162   0.80851   0.01926  Uani   1.00
C496   C     0.69857   0.59590   0.84262   0.01990  Uani   1.00
C497   C     0.76010   0.57110   0.80506   0.04127  Uani   1.00
H498   H     0.78180   0.61890   0.78950   0.06200  Uiso   1.00
H499   H     0.80350   0.54140   0.82050   0.06200  Uiso   1.00
H500   H     0.73440   0.53700   0.78100   0.06200  Uiso   1.00
C501   C     0.56852   0.63800   0.71241   0.02753  Uani   1.00
C502   C     0.49710   0.58500   0.70021   0.05517  Uani   1.00
H503   H     0.50740   0.55670   0.67010   0.08200  Uiso   1.00
H504   H     0.48880   0.54600   0.72590   0.08200  Uiso   1.00
H505   H     0.44910   0.61820   0.69680   0.08200  Uiso   1.00
N506   N     0.65755   0.54374   0.87065   0.01693  Uani   1.00
N507   N     0.60943   0.59158   0.89872   0.01697  Uani   1.00
N508   N     0.62028   0.66847   0.88760   0.02033  Uani   1.00
N509   N     0.67724   0.67316   0.85195   0.01763  Uani   1.00
N510   N     0.63417   0.64582   0.68515   0.01877  Uani   1.00
N511   N     0.68270   0.69927   0.70876   0.01560  Uani   1.00
N512   N     0.64513   0.72328   0.74885   0.02067  Uani   1.00
N513   N     0.57301   0.68488   0.75217   0.02583  Uani   1.00
Cu514  Cu    0.20272   0.27162   0.30851   0.01926  Uani   1.00
C515   C     0.19857   0.09590   0.34262   0.01990  Uani   1.00
C516   C     0.26010   0.07110   0.30506   0.04127  Uani   1.00
H517   H     0.28180   0.11890   0.28950   0.06200  Uiso   1.00
H518   H     0.30350   0.04140   0.32050   0.06200  Uiso   1.00
H519   H     0.23440   0.03700   0.28100   0.06200  Uiso   1.00
C520   C     0.06852   0.13800   0.21241   0.02753  Uani   1.00
C521   C     0.99710   0.08500   0.20021   0.05517  Uani   1.00
H522   H     0.00740   0.05670   0.17010   0.08200  Uiso   1.00
H523   H     0.98880   0.04600   0.22590   0.08200  Uiso   1.00
H524   H     0.94910   0.11820   0.19680   0.08200  Uiso   1.00
N525   N     0.15755   0.04374   0.37065   0.01693  Uani   1.00
N526   N     0.10943   0.09158   0.39872   0.01697  Uani   1.00
N527   N     0.12028   0.16847   0.38760   0.02033  Uani   1.00
N528   N     0.17724   0.17316   0.35195   0.01763  Uani   1.00
N529   N     0.13417   0.14582   0.18515   0.01877  Uani   1.00
N530   N     0.18270   0.19927   0.20876   0.01560  Uani   1.00
N531   N     0.14513   0.22328   0.24885   0.02067  Uani   1.00
N532   N     0.07301   0.18488   0.25217   0.02583  Uani   1.00
Cu533  Cu    0.97838   0.95272   0.55851   0.01926  Uani   1.00
C534   C     0.15410   0.94857   0.59262   0.01990  Uani   1.00
C535   C     0.17890   0.01010   0.55506   0.04127  Uani   1.00
H536   H     0.13110   0.03180   0.53950   0.06200  Uiso   1.00
H537   H     0.20860   0.05350   0.57050   0.06200  Uiso   1.00
H538   H     0.21300   0.98440   0.53100   0.06200  Uiso   1.00
C539   C     0.11200   0.81852   0.46241   0.02753  Uani   1.00
C540   C     0.16500   0.74710   0.45021   0.05517  Uani   1.00
H541   H     0.19330   0.75740   0.42010   0.08200  Uiso   1.00
H542   H     0.20400   0.73880   0.47590   0.08200  Uiso   1.00
H543   H     0.13180   0.69910   0.44680   0.08200  Uiso   1.00
N544   N     0.20626   0.90755   0.62065   0.01693  Uani   1.00
N545   N     0.15842   0.85943   0.64872   0.01697  Uani   1.00
N546   N     0.08153   0.87028   0.63760   0.02033  Uani   1.00
N547   N     0.07684   0.92724   0.60195   0.01763  Uani   1.00
N548   N     0.10418   0.88417   0.43515   0.01877  Uani   1.00
N549   N     0.05073   0.93270   0.45876   0.01560  Uani   1.00
N550   N     0.02672   0.89513   0.49885   0.02067  Uani   1.00
N551   N     0.06512   0.82301   0.50217   0.02583  Uani   1.00
Cu552  Cu    0.47838   0.45272   0.05851   0.01926  Uani   1.00
C553   C     0.65410   0.44857   0.09262   0.01990  Uani   1.00
C554   C     0.67890   0.51010   0.05506   0.04127  Uani   1.00
H555   H     0.63110   0.53180   0.03950   0.06200  Uiso   1.00
H556   H     0.70860   0.55350   0.07050   0.06200  Uiso   1.00
H557   H     0.71300   0.48440   0.03100   0.06200  Uiso   1.00
C558   C     0.61200   0.31852   0.96241   0.02753  Uani   1.00
C559   C     0.66500   0.24710   0.95021   0.05517  Uani   1.00
H560   H     0.69330   0.25740   0.92010   0.08200  Uiso   1.00
H561   H     0.70400   0.23880   0.97590   0.08200  Uiso   1.00
H562   H     0.63180   0.19910   0.94680   0.08200  Uiso   1.00
N563   N     0.70626   0.40755   0.12065   0.01693  Uani   1.00
N564   N     0.65842   0.35943   0.14872   0.01697  Uani   1.00
N565   N     0.58153   0.37028   0.13760   0.02033  Uani   1.00
N566   N     0.57684   0.42724   0.10195   0.01763  Uani   1.00
N567   N     0.60418   0.38417   0.93515   0.01877  Uani   1.00
N568   N     0.55073   0.43270   0.95876   0.01560  Uani   1.00
N569   N     0.52672   0.39513   0.99885   0.02067  Uani   1.00
N570   N     0.56512   0.32301   0.00217   0.02583  Uani   1.00
Cu571  Cu    0.52162   0.04728   0.05851   0.01926  Uani   1.00
C572   C     0.34590   0.05143   0.09262   0.01990  Uani   1.00
C573   C     0.32110   0.98990   0.05506   0.04127  Uani   1.00
H574   H     0.36890   0.96820   0.03950   0.06200  Uiso   1.00
H575   H     0.29140   0.94650   0.07050   0.06200  Uiso   1.00
H576   H     0.28700   0.01560   0.03100   0.06200  Uiso   1.00
C577   C     0.38800   0.18148   0.96241   0.02753  Uani   1.00
C578   C     0.33500   0.25290   0.95021   0.05517  Uani   1.00
H579   H     0.30670   0.24260   0.92010   0.08200  Uiso   1.00
H580   H     0.29600   0.26120   0.97590   0.08200  Uiso   1.00
H581   H     0.36820   0.30090   0.94680   0.08200  Uiso   1.00
N582   N     0.29374   0.09245   0.12065   0.01693  Uani   1.00
N583   N     0.34158   0.14057   0.14872   0.01697  Uani   1.00
N584   N     0.41847   0.12972   0.13760   0.02033  Uani   1.00
N585   N     0.42316   0.07276   0.10195   0.01763  Uani   1.00
N586   N     0.39582   0.11583   0.93515   0.01877  Uani   1.00
N587   N     0.44927   0.06730   0.95876   0.01560  Uani   1.00
N588   N     0.47328   0.10487   0.99885   0.02067  Uani   1.00
N589   N     0.43488   0.17699   0.00217   0.02583  Uani   1.00
Cu590  Cu    0.02162   0.54728   0.55851   0.01926  Uani   1.00
C591   C     0.84590   0.55143   0.59262   0.01990  Uani   1.00
C592   C     0.82110   0.48990   0.55506   0.04127  Uani   1.00
H593   H     0.86890   0.46820   0.53950   0.06200  Uiso   1.00
H594   H     0.79140   0.44650   0.57050   0.06200  Uiso   1.00
H595   H     0.78700   0.51560   0.53100   0.06200  Uiso   1.00
C596   C     0.88800   0.68148   0.46241   0.02753  Uani   1.00
C597   C     0.83500   0.75290   0.45021   0.05517  Uani   1.00
H598   H     0.80670   0.74260   0.42010   0.08200  Uiso   1.00
H599   H     0.79600   0.76120   0.47590   0.08200  Uiso   1.00
H600   H     0.86820   0.80090   0.44680   0.08200  Uiso   1.00
N601   N     0.79374   0.59245   0.62065   0.01693  Uani   1.00
N602   N     0.84158   0.64057   0.64872   0.01697  Uani   1.00
N603   N     0.91847   0.62972   0.63760   0.02033  Uani   1.00
N604   N     0.92316   0.57276   0.60195   0.01763  Uani   1.00
N605   N     0.89582   0.61583   0.43515   0.01877  Uani   1.00
N606   N     0.94927   0.56730   0.45876   0.01560  Uani   1.00
N607   N     0.97328   0.60487   0.49885   0.02067  Uani   1.00
N608   N     0.93488   0.67699   0.50217   0.02583  Uani   1.00
Cu609  Cu    0.33145   0.58145   0.12500   0.01821  Uani   1.00
Cu610  Cu    0.83145   0.08145   0.62500   0.01821  Uani   1.00
Cu611  Cu    0.16855   0.41855   0.62500   0.01821  Uani   1.00
Cu612  Cu    0.66855   0.08145   0.37500   0.01821  Uani   1.00
Cu613  Cu    0.83145   0.91855   0.87500   0.01821  Uani   1.00
Cu614  Cu    0.16855   0.58145   0.87500   0.01821  Uani   1.00
Cu615  Cu    0.33145   0.41855   0.37500   0.01821  Uani   1.00
Cu616  Cu    0.66855   0.91855   0.12500   0.01821  Uani   1.00
Cu617  Cu    0.66855   0.41855   0.87500   0.01821  Uani   1.00
Cu618  Cu    0.16855   0.91855   0.37500   0.01821  Uani   1.00
Cu619  Cu    0.83145   0.58145   0.37500   0.01821  Uani   1.00
Cu620  Cu    0.33145   0.08145   0.87500   0.01821  Uani   1.00
Cu621  Cu    0.33145   0.91855   0.62500   0.01821  Uani   1.00
Cu622  Cu    0.16855   0.08145   0.12500   0.01821  Uani   1.00
Cu623  Cu    0.83145   0.41855   0.12500   0.01821  Uani   1.00
Cu624  Cu    0.66855   0.58145   0.62500   0.01821  Uani   1.00
Na625  Na    0.50000   0.75000   0.31725   0.02743  Uani   1.00
Na626  Na    0.00000   0.25000   0.81725   0.02743  Uani   1.00
Na627  Na    0.50000   0.25000   0.56725   0.02743  Uani   1.00
Na628  Na    0.00000   0.75000   0.06725   0.02743  Uani   1.00
Na629  Na    0.00000   0.75000   0.68275   0.02743  Uani   1.00
Na630  Na    0.50000   0.25000   0.18275   0.02743  Uani   1.00
Na631  Na    0.00000   0.25000   0.43275   0.02743  Uani   1.00
Na632  Na    0.50000   0.75000   0.93275   0.02743  Uani   1.00
Na633  Na    0.50000   0.25000   0.68275   0.02743  Uani   1.00
Na634  Na    0.00000   0.75000   0.18275   0.02743  Uani   1.00
Na635  Na    0.50000   0.75000   0.43275   0.02743  Uani   1.00
Na636  Na    0.00000   0.25000   0.93275   0.02743  Uani   1.00
Na637  Na    0.00000   0.25000   0.31725   0.02743  Uani   1.00
Na638  Na    0.50000   0.75000   0.81725   0.02743  Uani   1.00
Na639  Na    0.00000   0.75000   0.56725   0.02743  Uani   1.00
Na640  Na    0.50000   0.25000   0.06725   0.02743  Uani   1.00
loop_
_atom_site_aniso_label
_atom_site_aniso_U_11
_atom_site_aniso_U_22
_atom_site_aniso_U_33
_atom_site_aniso_U_12
_atom_site_aniso_U_13
_atom_site_aniso_U_23
Cu1       0.02120   0.01448   0.02210   0.00375  -0.01074  -0.00303
C2        0.01790   0.02080   0.02100  -0.00290  -0.00480   0.00520
C3        0.05300   0.02680   0.04400  -0.01150  -0.03550   0.01010
C7        0.01780   0.04700   0.01780   0.00840  -0.00490  -0.00310
C8        0.02850   0.10000   0.03700   0.03900  -0.00380  -0.02400
N12       0.01620   0.01380   0.02080  -0.00330  -0.00060   0.00740
N13       0.01670   0.01460   0.01960  -0.00240  -0.00280   0.00230
N14       0.02810   0.01450   0.01840  -0.00020  -0.00860   0.00160
N15       0.02070   0.01310   0.01910   0.00670  -0.00540   0.00180
N16       0.01640   0.02130   0.01860  -0.00060  -0.00260  -0.00050
N17       0.01620   0.01560   0.01500  -0.00180  -0.00450   0.00170
N18       0.01790   0.02470   0.01940  -0.00190  -0.00290   0.00460
N19       0.01500   0.03970   0.02280   0.00390  -0.00510  -0.00150
Cu20      0.02120   0.01448   0.02210   0.00375  -0.01074  -0.00303
C21       0.01790   0.02080   0.02100  -0.00290  -0.00480   0.00520
C22       0.05300   0.02680   0.04400  -0.01150  -0.03550   0.01010
C26       0.01780   0.04700   0.01780   0.00840  -0.00490  -0.00310
C27       0.02850   0.10000   0.03700   0.03900  -0.00380  -0.02400
N31       0.01620   0.01380   0.02080  -0.00330  -0.00060   0.00740
N32       0.01670   0.01460   0.01960  -0.00240  -0.00280   0.00230
N33       0.02810   0.01450   0.01840  -0.00020  -0.00860   0.00160
N34       0.02070   0.01310   0.01910   0.00670  -0.00540   0.00180
N35       0.01640   0.02130   0.01860  -0.00060  -0.00260  -0.00050
N36       0.01620   0.01560   0.01500  -0.00180  -0.00450   0.00170
N37       0.01790   0.02470   0.01940  -0.00190  -0.00290   0.00460
N38       0.01500   0.03970   0.02280   0.00390  -0.00510  -0.00150
Cu39      0.02120   0.01448   0.02210   0.00375   0.01074   0.00303
C40       0.01790   0.02080   0.02100  -0.00290   0.00480  -0.00520
C41       0.05300   0.02680   0.04400  -0.01150   0.03550  -0.01010
C45       0.01780   0.04700   0.01780   0.00840   0.00490   0.00310
C46       0.02850   0.10000   0.03700   0.03900   0.00380   0.02400
N50       0.01620   0.01380   0.02080  -0.00330   0.00060  -0.00740
N51       0.01670   0.01460   0.01960  -0.00240   0.00280  -0.00230
N52       0.02810   0.01450   0.01840  -0.00020   0.00860  -0.00160
N53       0.02070   0.01310   0.01910   0.00670   0.00540  -0.00180
N54       0.01640   0.02130   0.01860  -0.00060   0.00260   0.00050
N55       0.01620   0.01560   0.01500  -0.00180   0.00450  -0.00170
N56       0.01790   0.02470   0.01940  -0.00190   0.00290  -0.00460
N57       0.01500   0.03970   0.02280   0.00390   0.00510   0.00150
Cu58      0.02120   0.01448   0.02210   0.00375   0.01074   0.00303
C59       0.01790   0.02080   0.02100  -0.00290   0.00480  -0.00520
C60       0.05300   0.02680   0.04400  -0.01150   0.03550  -0.01010
C64       0.01780   0.04700   0.01780   0.00840   0.00490   0.00310
C65       0.02850   0.10000   0.03700   0.03900   0.00380   0.02400
N69       0.01620   0.01380   0.02080  -0.00330   0.00060  -0.00740
N70       0.01670   0.01460   0.01960  -0.00240   0.00280  -0.00230
N71       0.02810   0.01450   0.01840  -0.00020   0.00860  -0.00160
N72       0.02070   0.01310   0.01910   0.00670   0.00540  -0.00180
N73       0.01640   0.02130   0.01860  -0.00060   0.00260   0.00050
N74       0.01620   0.01560   0.01500  -0.00180   0.00450  -0.00170
N75       0.01790   0.02470   0.01940  -0.00190   0.00290  -0.00460
N76       0.01500   0.03970   0.02280   0.00390   0.00510   0.00150
Cu77      0.01448   0.02120   0.02210  -0.00375   0.00303  -0.01074
C78       0.02080   0.01790   0.02100   0.00290  -0.00520  -0.00480
C79       0.02680   0.05300   0.04400   0.01150  -0.01010  -0.03550
C83       0.04700   0.01780   0.01780  -0.00840   0.00310  -0.00490
C84       0.10000   0.02850   0.03700  -0.03900   0.02400  -0.00380
N88       0.01380   0.01620   0.02080   0.00330  -0.00740  -0.00060
N89       0.01460   0.01670   0.01960   0.00240  -0.00230  -0.00280
N90       0.01450   0.02810   0.01840   0.00020  -0.00160  -0.00860
N91       0.01310   0.02070   0.01910  -0.00670  -0.00180  -0.00540
N92       0.02130   0.01640   0.01860   0.00060   0.00050  -0.00260
N93       0.01560   0.01620   0.01500   0.00180  -0.00170  -0.00450
N94       0.02470   0.01790   0.01940   0.00190  -0.00460  -0.00290
N95       0.03970   0.01500   0.02280  -0.00390   0.00150  -0.00510
Cu96      0.01448   0.02120   0.02210  -0.00375   0.00303  -0.01074
C97       0.02080   0.01790   0.02100   0.00290  -0.00520  -0.00480
C98       0.02680   0.05300   0.04400   0.01150  -0.01010  -0.03550
C102      0.04700   0.01780   0.01780  -0.00840   0.00310  -0.00490
C103      0.10000   0.02850   0.03700  -0.03900   0.02400  -0.00380
N107      0.01380   0.01620   0.02080   0.00330  -0.00740  -0.00060
N108      0.01460   0.01670   0.01960   0.00240  -0.00230  -0.00280
N109      0.01450   0.02810   0.01840   0.00020  -0.00160  -0.00860
N110      0.01310   0.02070   0.01910  -0.00670  -0.00180  -0.00540
N111      0.02130   0.01640   0.01860   0.00060   0.00050  -0.00260
N112      0.01560   0.01620   0.01500   0.00180  -0.00170  -0.00450
N113      0.02470   0.01790   0.01940   0.00190  -0.00460  -0.00290
N114      0.03970   0.01500   0.02280  -0.00390   0.00150  -0.00510
Cu115     0.01448   0.02120   0.02210  -0.00375  -0.00303   0.01074
C116      0.02080   0.01790   0.02100   0.00290   0.00520   0.00480
C117      0.02680   0.05300   0.04400   0.01150   0.01010   0.03550
C121      0.04700   0.01780   0.01780  -0.00840  -0.00310   0.00490
C122      0.10000   0.02850   0.03700  -0.03900  -0.02400   0.00380
N126      0.01380   0.01620   0.02080   0.00330   0.00740   0.00060
N127      0.01460   0.01670   0.01960   0.00240   0.00230   0.00280
N128      0.01450   0.02810   0.01840   0.00020   0.00160   0.00860
N129      0.01310   0.02070   0.01910  -0.00670   0.00180   0.00540
N130      0.02130   0.01640   0.01860   0.00060  -0.00050   0.00260
N131      0.01560   0.01620   0.01500   0.00180   0.00170   0.00450
N132      0.02470   0.01790   0.01940   0.00190   0.00460   0.00290
N133      0.03970   0.01500   0.02280  -0.00390  -0.00150   0.00510
Cu134     0.01448   0.02120   0.02210  -0.00375  -0.00303   0.01074
C135      0.02080   0.01790   0.02100   0.00290   0.00520   0.00480
C136      0.02680   0.05300   0.04400   0.01150   0.01010   0.03550
C140      0.04700   0.01780   0.01780  -0.00840  -0.00310   0.00490
C141      0.10000   0.02850   0.03700  -0.03900  -0.02400   0.00380
N145      0.01380   0.01620   0.02080   0.00330   0.00740   0.00060
N146      0.01460   0.01670   0.01960   0.00240   0.00230   0.00280
N147      0.01450   0.02810   0.01840   0.00020   0.00160   0.00860
N148      0.01310   0.02070   0.01910  -0.00670   0.00180   0.00540
N149      0.02130   0.01640   0.01860   0.00060  -0.00050   0.00260
N150      0.01560   0.01620   0.01500   0.00180   0.00170   0.00450
N151      0.02470   0.01790   0.01940   0.00190   0.00460   0.00290
N152      0.03970   0.01500   0.02280  -0.00390  -0.00150   0.00510
Cu153     0.02120   0.01448   0.02210  -0.00375  -0.01074   0.00303
C154      0.01790   0.02080   0.02100   0.00290  -0.00480  -0.00520
C155      0.05300   0.02680   0.04400   0.01150  -0.03550  -0.01010
C159      0.01780   0.04700   0.01780  -0.00840  -0.00490   0.00310
C160      0.02850   0.10000   0.03700  -0.03900  -0.00380   0.02400
N164      0.01620   0.01380   0.02080   0.00330  -0.00060  -0.00740
N165      0.01670   0.01460   0.01960   0.00240  -0.00280  -0.00230
N166      0.02810   0.01450   0.01840   0.00020  -0.00860  -0.00160
N167      0.02070   0.01310   0.01910  -0.00670  -0.00540  -0.00180
N168      0.01640   0.02130   0.01860   0.00060  -0.00260   0.00050
N169      0.01620   0.01560   0.01500   0.00180  -0.00450  -0.00170
N170      0.01790   0.02470   0.01940   0.00190  -0.00290  -0.00460
N171      0.01500   0.03970   0.02280  -0.00390  -0.00510   0.00150
Cu172     0.02120   0.01448   0.02210  -0.00375  -0.01074   0.00303
C173      0.01790   0.02080   0.02100   0.00290  -0.00480  -0.00520
C174      0.05300   0.02680   0.04400   0.01150  -0.03550  -0.01010
C178      0.01780   0.04700   0.01780  -0.00840  -0.00490   0.00310
C179      0.02850   0.10000   0.03700  -0.03900  -0.00380   0.02400
N183      0.01620   0.01380   0.02080   0.00330  -0.00060  -0.00740
N184      0.01670   0.01460   0.01960   0.00240  -0.00280  -0.00230
N185      0.02810   0.01450   0.01840   0.00020  -0.00860  -0.00160
N186      0.02070   0.01310   0.01910  -0.00670  -0.00540  -0.00180
N187      0.01640   0.02130   0.01860   0.00060  -0.00260   0.00050
N188      0.01620   0.01560   0.01500   0.00180  -0.00450  -0.00170
N189      0.01790   0.02470   0.01940   0.00190  -0.00290  -0.00460
N190      0.01500   0.03970   0.02280  -0.00390  -0.00510   0.00150
Cu191     0.02120   0.01448   0.02210  -0.00375   0.01074  -0.00303
C192      0.01790   0.02080   0.02100   0.00290   0.00480   0.00520
C193      0.05300   0.02680   0.04400   0.01150   0.03550   0.01010
C197      0.01780   0.04700   0.01780  -0.00840   0.00490  -0.00310
C198      0.02850   0.10000   0.03700  -0.03900   0.00380  -0.02400
N202      0.01620   0.01380   0.02080   0.00330   0.00060   0.00740
N203      0.01670   0.01460   0.01960   0.00240   0.00280   0.00230
N204      0.02810   0.01450   0.01840   0.00020   0.00860   0.00160
N205      0.02070   0.01310   0.01910  -0.00670   0.00540   0.00180
N206      0.01640   0.02130   0.01860   0.00060   0.00260  -0.00050
N207      0.01620   0.01560   0.01500   0.00180   0.00450   0.00170
N208      0.01790   0.02470   0.01940   0.00190   0.00290   0.00460
N209      0.01500   0.03970   0.02280  -0.00390   0.00510  -0.00150
Cu210     0.02120   0.01448   0.02210  -0.00375   0.01074  -0.00303
C211      0.01790   0.02080   0.02100   0.00290   0.00480   0.00520
C212      0.05300   0.02680   0.04400   0.01150   0.03550   0.01010
C216      0.01780   0.04700   0.01780  -0.00840   0.00490  -0.00310
C217      0.02850   0.10000   0.03700  -0.03900   0.00380  -0.02400
N221      0.01620   0.01380   0.02080   0.00330   0.00060   0.00740
N222      0.01670   0.01460   0.01960   0.00240   0.00280   0.00230
N223      0.02810   0.01450   0.01840   0.00020   0.00860   0.00160
N224      0.02070   0.01310   0.01910  -0.00670   0.00540   0.00180
N225      0.01640   0.02130   0.01860   0.00060   0.00260  -0.00050
N226      0.01620   0.01560   0.01500   0.00180   0.00450   0.00170
N227      0.01790   0.02470   0.01940   0.00190   0.00290   0.00460
N228      0.01500   0.03970   0.02280  -0.00390   0.00510  -0.00150
Cu229     0.01448   0.02120   0.02210   0.00375   0.00303   0.01074
C230      0.02080   0.01790   0.02100  -0.00290  -0.00520   0.00480
C231      0.02680   0.05300   0.04400  -0.01150  -0.01010   0.03550
C235      0.04700   0.01780   0.01780   0.00840   0.00310   0.00490
C236      0.10000   0.02850   0.03700   0.03900   0.02400   0.00380
N240      0.01380   0.01620   0.02080  -0.00330  -0.00740   0.00060
N241      0.01460   0.01670   0.01960  -0.00240  -0.00230   0.00280
N242      0.01450   0.02810   0.01840  -0.00020  -0.00160   0.00860
N243      0.01310   0.02070   0.01910   0.00670  -0.00180   0.00540
N244      0.02130   0.01640   0.01860  -0.00060   0.00050   0.00260
N245      0.01560   0.01620   0.01500  -0.00180  -0.00170   0.00450
N246      0.02470   0.01790   0.01940  -0.00190  -0.00460   0.00290
N247      0.03970   0.01500   0.02280   0.00390   0.00150   0.00510
Cu248     0.01448   0.02120   0.02210   0.00375   0.00303   0.01074
C249      0.02080   0.01790   0.02100  -0.00290  -0.00520   0.00480
C250      0.02680   0.05300   0.04400  -0.01150  -0.01010   0.03550
C254      0.04700   0.01780   0.01780   0.00840   0.00310   0.00490
C255      0.10000   0.02850   0.03700   0.03900   0.02400   0.00380
N259      0.01380   0.01620   0.02080  -0.00330  -0.00740   0.00060
N260      0.01460   0.01670   0.01960  -0.00240  -0.00230   0.00280
N261      0.01450   0.02810   0.01840  -0.00020  -0.00160   0.00860
N262      0.01310   0.02070   0.01910   0.00670  -0.00180   0.00540
N263      0.02130   0.01640   0.01860  -0.00060   0.00050   0.00260
N264      0.01560   0.01620   0.01500  -0.00180  -0.00170   0.00450
N265      0.02470   0.01790   0.01940  -0.00190  -0.00460   0.00290
N266      0.03970   0.01500   0.02280   0.00390   0.00150   0.00510
Cu267     0.01448   0.02120   0.02210   0.00375  -0.00303  -0.01074
C268      0.02080   0.01790   0.02100  -0.00290   0.00520  -0.00480
C269      0.02680   0.05300   0.04400  -0.01150   0.01010  -0.03550
C273      0.04700   0.01780   0.01780   0.00840  -0.00310  -0.00490
C274      0.10000   0.02850   0.03700   0.03900  -0.02400  -0.00380
N278      0.01380   0.01620   0.02080  -0.00330   0.00740  -0.00060
N279      0.01460   0.01670   0.01960  -0.00240   0.00230  -0.00280
N280      0.01450   0.02810   0.01840  -0.00020   0.00160  -0.00860
N281      0.01310   0.02070   0.01910   0.00670   0.00180  -0.00540
N282      0.02130   0.01640   0.01860  -0.00060  -0.00050  -0.00260
N283      0.01560   0.01620   0.01500  -0.00180   0.00170  -0.00450
N284      0.02470   0.01790   0.01940  -0.00190   0.00460  -0.00290
N285      0.03970   0.01500   0.02280   0.00390  -0.00150  -0.00510
Cu286     0.01448   0.02120   0.02210   0.00375  -0.00303  -0.01074
C287      0.02080   0.01790   0.02100  -0.00290   0.00520  -0.00480
C288      0.02680   0.05300   0.04400  -0.01150   0.01010  -0.03550
C292      0.04700   0.01780   0.01780   0.00840  -0.00310  -0.00490
C293      0.10000   0.02850   0.03700   0.03900  -0.02400  -0.00380
N297      0.01380   0.01620   0.02080  -0.00330   0.00740  -0.00060
N298      0.01460   0.01670   0.01960  -0.00240   0.00230  -0.00280
N299      0.01450   0.02810   0.01840  -0.00020   0.00160  -0.00860
N300      0.01310   0.02070   0.01910   0.00670   0.00180  -0.00540
N301      0.02130   0.01640   0.01860  -0.00060  -0.00050  -0.00260
N302      0.01560   0.01620   0.01500  -0.00180   0.00170  -0.00450
N303      0.02470   0.01790   0.01940  -0.00190   0.00460  -0.00290
N304      0.03970   0.01500   0.02280   0.00390  -0.00150  -0.00510
Cu305     0.02120   0.01448   0.02210   0.00375  -0.01074  -0.00303
C306      0.01790   0.02080   0.02100  -0.00290  -0.00480   0.00520
C307      0.05300   0.02680   0.04400  -0.01150  -0.03550   0.01010
C311      0.01780   0.04700   0.01780   0.00840  -0.00490  -0.00310
C312      0.02850   0.10000   0.03700   0.03900  -0.00380  -0.02400
N316      0.01620   0.01380   0.02080  -0.00330  -0.00060   0.00740
N317      0.01670   0.01460   0.01960  -0.00240  -0.00280   0.00230
N318      0.02810   0.01450   0.01840  -0.00020  -0.00860   0.00160
N319      0.02070   0.01310   0.01910   0.00670  -0.00540   0.00180
N320      0.01640   0.02130   0.01860  -0.00060  -0.00260  -0.00050
N321      0.01620   0.01560   0.01500  -0.00180  -0.00450   0.00170
N322      0.01790   0.02470   0.01940  -0.00190  -0.00290   0.00460
N323      0.01500   0.03970   0.02280   0.00390  -0.00510  -0.00150
Cu324     0.02120   0.01448   0.02210   0.00375  -0.01074  -0.00303
C325      0.01790   0.02080   0.02100  -0.00290  -0.00480   0.00520
C326      0.05300   0.02680   0.04400  -0.01150  -0.03550   0.01010
C330      0.01780   0.04700   0.01780   0.00840  -0.00490  -0.00310
C331      0.02850   0.10000   0.03700   0.03900  -0.00380  -0.02400
N335      0.01620   0.01380   0.02080  -0.00330  -0.00060   0.00740
N336      0.01670   0.01460   0.01960  -0.00240  -0.00280   0.00230
N337      0.02810   0.01450   0.01840  -0.00020  -0.00860   0.00160
N338      0.02070   0.01310   0.01910   0.00670  -0.00540   0.00180
N339      0.01640   0.02130   0.01860  -0.00060  -0.00260  -0.00050
N340      0.01620   0.01560   0.01500  -0.00180  -0.00450   0.00170
N341      0.01790   0.02470   0.01940  -0.00190  -0.00290   0.00460
N342      0.01500   0.03970   0.02280   0.00390  -0.00510  -0.00150
Cu343     0.02120   0.01448   0.02210   0.00375   0.01074   0.00303
C344      0.01790   0.02080   0.02100  -0.00290   0.00480  -0.00520
C345      0.05300   0.02680   0.04400  -0.01150   0.03550  -0.01010
C349      0.01780   0.04700   0.01780   0.00840   0.00490   0.00310
C350      0.02850   0.10000   0.03700   0.03900   0.00380   0.02400
N354      0.01620   0.01380   0.02080  -0.00330   0.00060  -0.00740
N355      0.01670   0.01460   0.01960  -0.00240   0.00280  -0.00230
N356      0.02810   0.01450   0.01840  -0.00020   0.00860  -0.00160
N357      0.02070   0.01310   0.01910   0.00670   0.00540  -0.00180
N358      0.01640   0.02130   0.01860  -0.00060   0.00260   0.00050
N359      0.01620   0.01560   0.01500  -0.00180   0.00450  -0.00170
N360      0.01790   0.02470   0.01940  -0.00190   0.00290  -0.00460
N361      0.01500   0.03970   0.02280   0.00390   0.00510   0.00150
Cu362     0.02120   0.01448   0.02210   0.00375   0.01074   0.00303
C363      0.01790   0.02080   0.02100  -0.00290   0.00480  -0.00520
C364      0.05300   0.02680   0.04400  -0.01150   0.03550  -0.01010
C368      0.01780   0.04700   0.01780   0.00840   0.00490   0.00310
C369      0.02850   0.10000   0.03700   0.03900   0.00380   0.02400
N373      0.01620   0.01380   0.02080  -0.00330   0.00060  -0.00740
N374      0.01670   0.01460   0.01960  -0.00240   0.00280  -0.00230
N375      0.02810   0.01450   0.01840  -0.00020   0.00860  -0.00160
N376      0.02070   0.01310   0.01910   0.00670   0.00540  -0.00180
N377      0.01640   0.02130   0.01860  -0.00060   0.00260   0.00050
N378      0.01620   0.01560   0.01500  -0.00180   0.00450  -0.00170
N379      0.01790   0.02470   0.01940  -0.00190   0.00290  -0.00460
N380      0.01500   0.03970   0.02280   0.00390   0.00510   0.00150
Cu381     0.01448   0.02120   0.02210  -0.00375   0.00303  -0.01074
C382      0.02080   0.01790   0.02100   0.00290  -0.00520  -0.00480
C383      0.02680   0.05300   0.04400   0.01150  -0.01010  -0.03550
C387      0.04700   0.01780   0.01780  -0.00840   0.00310  -0.00490
C388      0.10000   0.02850   0.03700  -0.03900   0.02400  -0.00380
N392      0.01380   0.01620   0.02080   0.00330  -0.00740  -0.00060
N393      0.01460   0.01670   0.01960   0.00240  -0.00230  -0.00280
N394      0.01450   0.02810   0.01840   0.00020  -0.00160  -0.00860
N395      0.01310   0.02070   0.01910  -0.00670  -0.00180  -0.00540
N396      0.02130   0.01640   0.01860   0.00060   0.00050  -0.00260
N397      0.01560   0.01620   0.01500   0.00180  -0.00170  -0.00450
N398      0.02470   0.01790   0.01940   0.00190  -0.00460  -0.00290
N399      0.03970   0.01500   0.02280  -0.00390   0.00150  -0.00510
Cu400     0.01448   0.02120   0.02210  -0.00375   0.00303  -0.01074
C401      0.02080   0.01790   0.02100   0.00290  -0.00520  -0.00480
C402      0.02680   0.05300   0.04400   0.01150  -0.01010  -0.03550
C406      0.04700   0.01780   0.01780  -0.00840   0.00310  -0.00490
C407      0.10000   0.02850   0.03700  -0.03900   0.02400  -0.00380
N411      0.01380   0.01620   0.02080   0.00330  -0.00740  -0.00060
N412      0.01460   0.01670   0.01960   0.00240  -0.00230  -0.00280
N413      0.01450   0.02810   0.01840   0.00020  -0.00160  -0.00860
N414      0.01310   0.02070   0.01910  -0.00670  -0.00180  -0.00540
N415      0.02130   0.01640   0.01860   0.00060   0.00050  -0.00260
N416      0.01560   0.01620   0.01500   0.00180  -0.00170  -0.00450
N417      0.02470   0.01790   0.01940   0.00190  -0.00460  -0.00290
N418      0.03970   0.01500   0.02280  -0.00390   0.00150  -0.00510
Cu419     0.01448   0.02120   0.02210  -0.00375  -0.00303   0.01074
C420      0.02080   0.01790   0.02100   0.00290   0.00520   0.00480
C421      0.02680   0.05300   0.04400   0.01150   0.01010   0.03550
C425      0.04700   0.01780   0.01780  -0.00840  -0.00310   0.00490
C426      0.10000   0.02850   0.03700  -0.03900  -0.02400   0.00380
N430      0.01380   0.01620   0.02080   0.00330   0.00740   0.00060
N431      0.01460   0.01670   0.01960   0.00240   0.00230   0.00280
N432      0.01450   0.02810   0.01840   0.00020   0.00160   0.00860
N433      0.01310   0.02070   0.01910  -0.00670   0.00180   0.00540
N434      0.02130   0.01640   0.01860   0.00060  -0.00050   0.00260
N435      0.01560   0.01620   0.01500   0.00180   0.00170   0.00450
N436      0.02470   0.01790   0.01940   0.00190   0.00460   0.00290
N437      0.03970   0.01500   0.02280  -0.00390  -0.00150   0.00510
Cu438     0.01448   0.02120   0.02210  -0.00375  -0.00303   0.01074
C439      0.02080   0.01790   0.02100   0.00290   0.00520   0.00480
C440      0.02680   0.05300   0.04400   0.01150   0.01010   0.03550
C444      0.04700   0.01780   0.01780  -0.00840  -0.00310   0.00490
C445      0.10000   0.02850   0.03700  -0.03900  -0.02400   0.00380
N449      0.01380   0.01620   0.02080   0.00330   0.00740   0.00060
N450      0.01460   0.01670   0.01960   0.00240   0.00230   0.00280
N451      0.01450   0.02810   0.01840   0.00020   0.00160   0.00860
N452      0.01310   0.02070   0.01910  -0.00670   0.00180   0.00540
N453      0.02130   0.01640   0.01860   0.00060  -0.00050   0.00260
N454      0.01560   0.01620   0.01500   0.00180   0.00170   0.00450
N455      0.02470   0.01790   0.01940   0.00190   0.00460   0.00290
N456      0.03970   0.01500   0.02280  -0.00390  -0.00150   0.00510
Cu457     0.02120   0.01448   0.02210  -0.00375  -0.01074   0.00303
C458      0.01790   0.02080   0.02100   0.00290  -0.00480  -0.00520
C459      0.05300   0.02680   0.04400   0.01150  -0.03550  -0.01010
C463      0.01780   0.04700   0.01780  -0.00840  -0.00490   0.00310
C464      0.02850   0.10000   0.03700  -0.03900  -0.00380   0.02400
N468      0.01620   0.01380   0.02080   0.00330  -0.00060  -0.00740
N469      0.01670   0.01460   0.01960   0.00240  -0.00280  -0.00230
N470      0.02810   0.01450   0.01840   0.00020  -0.00860  -0.00160
N471      0.02070   0.01310   0.01910  -0.00670  -0.00540  -0.00180
N472      0.01640   0.02130   0.01860   0.00060  -0.00260   0.00050
N473      0.01620   0.01560   0.01500   0.00180  -0.00450  -0.00170
N474      0.01790   0.02470   0.01940   0.00190  -0.00290  -0.00460
N475      0.01500   0.03970   0.02280  -0.00390  -0.00510   0.00150
Cu476     0.02120   0.01448   0.02210  -0.00375  -0.01074   0.00303
C477      0.01790   0.02080   0.02100   0.00290  -0.00480  -0.00520
C478      0.05300   0.02680   0.04400   0.01150  -0.03550  -0.01010
C482      0.01780   0.04700   0.01780  -0.00840  -0.00490   0.00310
C483      0.02850   0.10000   0.03700  -0.03900  -0.00380   0.02400
N487      0.01620   0.01380   0.02080   0.00330  -0.00060  -0.00740
N488      0.01670   0.01460   0.01960   0.00240  -0.00280  -0.00230
N489      0.02810   0.01450   0.01840   0.00020  -0.00860  -0.00160
N490      0.02070   0.01310   0.01910  -0.00670  -0.00540  -0.00180
N491      0.01640   0.02130   0.01860   0.00060  -0.00260   0.00050
N492      0.01620   0.01560   0.01500   0.00180  -0.00450  -0.00170
N493      0.01790   0.02470   0.01940   0.00190  -0.00290  -0.00460
N494      0.01500   0.03970   0.02280  -0.00390  -0.00510   0.00150
Cu495     0.02120   0.01448   0.02210  -0.00375   0.01074  -0.00303
C496      0.01790   0.02080   0.02100   0.00290   0.00480   0.00520
C497      0.05300   0.02680   0.04400   0.01150   0.03550   0.01010
C501      0.01780   0.04700   0.01780  -0.00840   0.00490  -0.00310
C502      0.02850   0.10000   0.03700  -0.03900   0.00380  -0.02400
N506      0.01620   0.01380   0.02080   0.00330   0.00060   0.00740
N507      0.01670   0.01460   0.01960   0.00240   0.00280   0.00230
N508      0.02810   0.01450   0.01840   0.00020   0.00860   0.00160
N509      0.02070   0.01310   0.01910  -0.00670   0.00540   0.00180
N510      0.01640   0.02130   0.01860   0.00060   0.00260  -0.00050
N511      0.01620   0.01560   0.01500   0.00180   0.00450   0.00170
N512      0.01790   0.02470   0.01940   0.00190   0.00290   0.00460
N513      0.01500   0.03970   0.02280  -0.00390   0.00510  -0.00150
Cu514     0.02120   0.01448   0.02210  -0.00375   0.01074  -0.00303
C515      0.01790   0.02080   0.02100   0.00290   0.00480   0.00520
C516      0.05300   0.02680   0.04400   0.01150   0.03550   0.01010
C520      0.01780   0.04700   0.01780  -0.00840   0.00490  -0.00310
C521      0.02850   0.10000   0.03700  -0.03900   0.00380  -0.02400
N525      0.01620   0.01380   0.02080   0.00330   0.00060   0.00740
N526      0.01670   0.01460   0.01960   0.00240   0.00280   0.00230
N527      0.02810   0.01450   0.01840   0.00020   0.00860   0.00160
N528      0.02070   0.01310   0.01910  -0.00670   0.00540   0.00180
N529      0.01640   0.02130   0.01860   0.00060   0.00260  -0.00050
N530      0.01620   0.01560   0.01500   0.00180   0.00450   0.00170
N531      0.01790   0.02470   0.01940   0.00190   0.00290   0.00460
N532      0.01500   0.03970   0.02280  -0.00390   0.00510  -0.00150
Cu533     0.01448   0.02120   0.02210   0.00375   0.00303   0.01074
C534      0.02080   0.01790   0.02100  -0.00290  -0.00520   0.00480
C535      0.02680   0.05300   0.04400  -0.01150  -0.01010   0.03550
C539      0.04700   0.01780   0.01780   0.00840   0.00310   0.00490
C540      0.10000   0.02850   0.03700   0.03900   0.02400   0.00380
N544      0.01380   0.01620   0.02080  -0.00330  -0.00740   0.00060
N545      0.01460   0.01670   0.01960  -0.00240  -0.00230   0.00280
N546      0.01450   0.02810   0.01840  -0.00020  -0.00160   0.00860
N547      0.01310   0.02070   0.01910   0.00670  -0.00180   0.00540
N548      0.02130   0.01640   0.01860  -0.00060   0.00050   0.00260
N549      0.01560   0.01620   0.01500  -0.00180  -0.00170   0.00450
N550      0.02470   0.01790   0.01940  -0.00190  -0.00460   0.00290
N551      0.03970   0.01500   0.02280   0.00390   0.00150   0.00510
Cu552     0.01448   0.02120   0.02210   0.00375   0.00303   0.01074
C553      0.02080   0.01790   0.02100  -0.00290  -0.00520   0.00480
C554      0.02680   0.05300   0.04400  -0.01150  -0.01010   0.03550
C558      0.04700   0.01780   0.01780   0.00840   0.00310   0.00490
C559      0.10000   0.02850   0.03700   0.03900   0.02400   0.00380
N563      0.01380   0.01620   0.02080  -0.00330  -0.00740   0.00060
N564      0.01460   0.01670   0.01960  -0.00240  -0.00230   0.00280
N565      0.01450   0.02810   0.01840  -0.00020  -0.00160   0.00860
N566      0.01310   0.02070   0.01910   0.00670  -0.00180   0.00540
N567      0.02130   0.01640   0.01860  -0.00060   0.00050   0.00260
N568      0.01560   0.01620   0.01500  -0.00180  -0.00170   0.00450
N569      0.02470   0.01790   0.01940  -0.00190  -0.00460   0.00290
N570      0.03970   0.01500   0.02280   0.00390   0.00150   0.00510
Cu571     0.01448   0.02120   0.02210   0.00375  -0.00303  -0.01074
C572      0.02080   0.01790   0.02100  -0.00290   0.00520  -0.00480
C573      0.02680   0.05300   0.04400  -0.01150   0.01010  -0.03550
C577      0.04700   0.01780   0.01780   0.00840  -0.00310  -0.00490
C578      0.10000   0.02850   0.03700   0.03900  -0.02400  -0.00380
N582      0.01380   0.01620   0.02080  -0.00330   0.00740  -0.00060
N583      0.01460   0.01670   0.01960  -0.00240   0.00230  -0.00280
N584      0.01450   0.02810   0.01840  -0.00020   0.00160  -0.00860
N585      0.01310   0.02070   0.01910   0.00670   0.00180  -0.00540
N586      0.02130   0.01640   0.01860  -0.00060  -0.00050  -0.00260
N587      0.01560   0.01620   0.01500  -0.00180   0.00170  -0.00450
N588      0.02470   0.01790   0.01940  -0.00190   0.00460  -0.00290
N589      0.03970   0.01500   0.02280   0.00390  -0.00150  -0.00510
Cu590     0.01448   0.02120   0.02210   0.00375  -0.00303  -0.01074
C591      0.02080   0.01790   0.02100  -0.00290   0.00520  -0.00480
C592      0.02680   0.05300   0.04400  -0.01150   0.01010  -0.03550
C596      0.04700   0.01780   0.01780   0.00840  -0.00310  -0.00490
C597      0.10000   0.02850   0.03700   0.03900  -0.02400  -0.00380
N601      0.01380   0.01620   0.02080  -0.00330   0.00740  -0.00060
N602      0.01460   0.01670   0.01960  -0.00240   0.00230  -0.00280
N603      0.01450   0.02810   0.01840  -0.00020   0.00160  -0.00860
N604      0.01310   0.02070   0.01910   0.00670   0.00180  -0.00540
N605      0.02130   0.01640   0.01860  -0.00060  -0.00050  -0.00260
N606      0.01560   0.01620   0.01500  -0.00180   0.00170  -0.00450
N607      0.02470   0.01790   0.01940  -0.00190   0.00460  -0.00290
N608      0.03970   0.01500   0.02280   0.00390  -0.00150  -0.00510
Cu609     0.01621   0.01621   0.02220   0.00140  -0.00027   0.00027
Cu610     0.01621   0.01621   0.02220   0.00140  -0.00027   0.00027
Cu611     0.01621   0.01621   0.02220   0.00140   0.00027  -0.00027
Cu612     0.01621   0.01621   0.02220  -0.00140  -0.00027  -0.00027
Cu613     0.01621   0.01621   0.02220  -0.00140   0.00027   0.00027
Cu614     0.01621   0.01621   0.02220  -0.00140  -0.00027  -0.00027
Cu615     0.01621   0.01621   0.02220  -0.00140   0.00027   0.00027
Cu616     0.01621   0.01621   0.02220   0.00140   0.00027  -0.00027
Cu617     0.01621   0.01621   0.02220   0.00140  -0.00027   0.00027
Cu618     0.01621   0.01621   0.02220   0.00140  -0.00027   0.00027
Cu619     0.01621   0.01621   0.02220   0.00140   0.00027  -0.00027
Cu620     0.01621   0.01621   0.02220   0.00140   0.00027  -0.00027
Cu621     0.01621   0.01621   0.02220  -0.00140  -0.00027  -0.00027
Cu622     0.01621   0.01621   0.02220  -0.00140   0.00027   0.00027
Cu623     0.01621   0.01621   0.02220  -0.00140  -0.00027  -0.00027
Cu624     0.01621   0.01621   0.02220  -0.00140   0.00027   0.00027
Na625     0.01610   0.04900   0.01720  -0.00030   0.00000   0.00000
Na626     0.01610   0.04900   0.01720  -0.00030   0.00000   0.00000
Na627     0.04900   0.01610   0.01720   0.00030   0.00000   0.00000
Na628     0.04900   0.01610   0.01720   0.00030   0.00000   0.00000
Na629     0.01610   0.04900   0.01720   0.00030   0.00000   0.00000
Na630     0.01610   0.04900   0.01720   0.00030   0.00000   0.00000
Na631     0.04900   0.01610   0.01720  -0.00030   0.00000   0.00000
Na632     0.04900   0.01610   0.01720  -0.00030   0.00000   0.00000
Na633     0.01610   0.04900   0.01720  -0.00030   0.00000   0.00000
Na634     0.01610   0.04900   0.01720  -0.00030   0.00000   0.00000
Na635     0.04900   0.01610   0.01720   0.00030   0.00000   0.00000
Na636     0.04900   0.01610   0.01720   0.00030   0.00000   0.00000
Na637     0.01610   0.04900   0.01720   0.00030   0.00000   0.00000
Na638     0.01610   0.04900   0.01720   0.00030   0.00000   0.00000
Na639     0.04900   0.01610   0.01720  -0.00030   0.00000   0.00000
Na640     0.04900   0.01610   0.01720  -0.00030   0.00000   0.00000
loop_
_geom_bond_atom_site_label_1
_geom_bond_atom_site_label_2
_geom_bond_distance
_geom_bond_site_symmetry_2
_ccdc_geom_bond_type
Cu1    N15     2.047   .     S
Cu1    N18     2.046   .     S
Cu1    N393    1.991   .     S
Cu1    N340    1.993   .     S
C2     C3      1.496   .     S
C2     N12     1.330   .     S
C2     N15     1.337   .     S
C3     H4      0.960   .     S
C3     H5      0.959   .     S
C3     H6      0.961   .     S
C7     C8      1.494   .     S
C7     N16     1.315   .     S
C7     N19     1.334   .     S
C8     H9      0.961   .     S
C8     H10     0.960   .     S
C8     H11     0.960   .     S
N12    N13     1.351   .     S
N12    Cu615   2.062   .     S
N13    N14     1.308   .     S
N13    Cu438   1.991   .     S
N14    Na635   2.682   .     S
N14    N15     1.352   .     S
N16    Cu609   2.035   .     S
N16    N17     1.348   .     S
N17    Cu324   1.993   .     S
N17    N18     1.318   .     S
N18    N19     1.341   .     S
N19    Na625   2.396   .     S
Cu20   N34     2.047   .     S
Cu20   N37     2.046   .     S
Cu20   N412    1.991   .     S
Cu20   N321    1.993   .     S
C21    C22     1.496   .     S
C21    N31     1.330   .     S
C21    N34     1.337   .     S
C22    H23     0.960   .     S
C22    H24     0.959   .     S
C22    H25     0.961   .     S
C26    C27     1.494   1_655 S
C26    N35     1.315   .     S
C26    N38     1.334   .     S
C27    C26     1.494   1_455 S
C27    H28     0.961   1_455 S
C27    H29     0.960   .     S
C27    H30     0.960   .     S
H28    C27     0.961   1_655 S
N31    N32     1.351   .     S
N31    Cu613   2.062   1_545 S
N32    N33     1.308   .     S
N32    Cu419   1.991   .     S
N33    Na636   2.682   1_655 S
N33    N34     1.352   .     S
N35    Cu610   2.035   .     S
N35    N36     1.348   .     S
N36    Cu305   1.993   .     S
N36    N37     1.318   .     S
N37    N38     1.341   .     S
N38    Na626   2.396   1_655 S
Cu39   N53     2.047   .     S
Cu39   N56     2.046   .     S
Cu39   N431    1.991   .     S
Cu39   N378    1.993   .     S
C40    C41     1.496   .     S
C40    N50     1.330   .     S
C40    N53     1.337   .     S
C41    H42     0.960   .     S
C41    H43     0.959   .     S
C41    H44     0.961   .     S
C45    C46     1.494   1_455 S
C45    N54     1.315   .     S
C45    N57     1.334   .     S
C46    C45     1.494   1_655 S
C46    H47     0.961   1_655 S
C46    H48     0.960   .     S
C46    H49     0.960   .     S
H47    C46     0.961   1_455 S
N50    N51     1.351   .     S
N50    Cu614   2.062   .     S
N51    N52     1.308   .     S
N51    Cu400   1.991   .     S
N52    Na636   2.682   .     S
N52    N53     1.352   .     S
N54    Cu611   2.035   .     S
N54    N55     1.348   .     S
N55    Cu362   1.993   .     S
N55    N56     1.318   .     S
N56    N57     1.341   .     S
N57    Na626   2.396   .     S
Cu58   N72     2.047   .     S
Cu58   N75     2.046   .     S
Cu58   N450    1.991   .     S
Cu58   N359    1.993   .     S
C59    C60     1.496   .     S
C59    N69     1.330   .     S
C59    N72     1.337   .     S
C60    H61     0.960   .     S
C60    H62     0.959   .     S
C60    H63     0.961   .     S
C64    C65     1.494   .     S
C64    N73     1.315   .     S
C64    N76     1.334   .     S
C65    H66     0.961   .     S
C65    H67     0.960   .     S
C65    H68     0.960   .     S
N69    N70     1.351   .     S
N69    Cu612   2.062   1_565 S
N70    N71     1.308   .     S
N70    Cu381   1.991   .     S
N71    Na635   2.682   .     S
N71    N72     1.352   .     S
N73    Cu616   2.035   .     S
N73    N74     1.348   .     S
N74    Cu343   1.993   .     S
N74    N75     1.318   .     S
N75    N76     1.341   .     S
N76    Na625   2.396   .     S
Cu77   N91     2.047   .     S
Cu77   N94     2.046   .     S
Cu77   N374    1.991   .     S
Cu77   N397    1.993   1_545 S
C78    C79     1.496   1_545 S
C78    N88     1.330   .     S
C78    N91     1.337   .     S
C79    C78     1.496   1_565 S
C79    H80     0.960   .     S
C79    H81     0.959   .     S
C79    H82     0.961   1_565 S
H82    C79     0.961   1_545 S
C83    C84     1.494   .     S
C83    N92     1.315   .     S
C83    N95     1.334   .     S
C84    H85     0.961   .     S
C84    H86     0.960   .     S
C84    H87     0.960   .     S
N88    N89     1.351   .     S
N88    Cu610   2.062   .     S
N89    N90     1.308   .     S
N89    Cu305   1.991   .     S
N90    Na633   2.682   .     S
N90    N91     1.352   .     S
N92    Cu612   2.035   .     S
N92    N93     1.348   .     S
N93    Cu381   1.993   1_545 S
N93    N94     1.318   .     S
N94    N95     1.341   .     S
N95    Na627   2.396   .     S
Cu96   N110    2.047   1_655 S
Cu96   N113    2.046   1_654 S
Cu96   N355    1.991   .     S
Cu96   N416    1.993   .     S
C97    C98     1.496   .     S
C97    N107    1.330   .     S
C97    N110    1.337   .     S
C98    H99     0.960   .     S
C98    H100    0.959   .     S
C98    H101    0.961   .     S
C102   C103    1.494   .     S
C102   N111    1.315   .     S
C102   N114    1.334   1_556 S
C103   H104    0.961   .     S
C103   H105    0.960   .     S
C103   H106    0.960   .     S
N107   N108    1.351   .     S
N107   Cu609   2.062   .     S
N108   N109    1.308   .     S
N108   Cu324   1.991   .     S
N109   Na634   2.682   .     S
N109   N110    1.352   .     S
N110   Cu96    2.047   1_455 S
N111   Cu614   2.035   .     S
N111   N112    1.348   .     S
N112   Cu400   1.993   .     S
N112   N113    1.318   .     S
N113   Cu96    2.046   1_456 S
N113   N114    1.341   1_556 S
N114   Na628   2.396   .     S
N114   C102    1.334   1_554 S
N114   N113    1.341   1_554 S
Cu115  N129    2.047   1_455 S
Cu115  N132    2.046   1_454 S
Cu115  N336    1.991   .     S
Cu115  N435    1.993   1_565 S
C116   C117    1.496   1_565 S
C116   N126    1.330   .     S
C116   N129    1.337   .     S
C117   C116    1.496   1_545 S
C117   H118    0.960   .     S
C117   H119    0.959   .     S
C117   H120    0.961   1_545 S
H120   C117    0.961   1_565 S
C121   C122    1.494   .     S
C121   N130    1.315   .     S
C121   N133    1.334   1_556 S
C122   H123    0.961   .     S
C122   H124    0.960   .     S
C122   H125    0.960   .     S
N126   N127    1.351   .     S
N126   Cu616   2.062   .     S
N127   N128    1.308   .     S
N127   Cu343   1.991   .     S
N128   Na634   2.682   1_655 S
N128   N129    1.352   .     S
N129   Cu115   2.047   1_655 S
N130   Cu613   2.035   .     S
N130   N131    1.348   .     S
N131   Cu419   1.993   1_565 S
N131   N132    1.318   .     S
N132   Cu115   2.046   1_656 S
N132   N133    1.341   1_556 S
N133   Na628   2.396   1_655 S
N133   C121    1.334   1_554 S
N133   N132    1.341   1_554 S
Cu134  N148    2.047   .     S
Cu134  N151    2.046   .     S
Cu134  N317    1.991   .     S
Cu134  N454    1.993   .     S
C135   C136    1.496   .     S
C135   N145    1.330   .     S
C135   N148    1.337   .     S
C136   H137    0.960   .     S
C136   H138    0.959   .     S
C136   H139    0.961   .     S
C140   C141    1.494   .     S
C140   N149    1.315   .     S
C140   N152    1.334   .     S
C141   H142    0.961   .     S
C141   H143    0.960   .     S
C141   H144    0.960   .     S
N145   N146    1.351   .     S
N145   Cu611   2.062   .     S
N146   N147    1.308   .     S
N146   Cu362   1.991   .     S
N147   Na633   2.682   .     S
N147   N148    1.352   .     S
N149   Cu615   2.035   .     S
N149   N150    1.348   .     S
N150   Cu438   1.993   .     S
N150   N151    1.318   .     S
N151   N152    1.341   .     S
N152   Na627   2.396   .     S
Cu153  N167    2.047   .     S
Cu153  N170    2.046   .     S
Cu153  N545    1.991   .     S
Cu153  N492    1.993   .     S
C154   C155    1.496   .     S
C154   N164    1.330   .     S
C154   N167    1.337   .     S
C155   H156    0.960   .     S
C155   H157    0.959   .     S
C155   H158    0.961   .     S
C159   C160    1.494   1_455 S
C159   N168    1.315   .     S
C159   N171    1.334   .     S
C160   C159    1.494   1_655 S
C160   H161    0.961   1_655 S
C160   H162    0.960   .     S
C160   H163    0.960   .     S
H161   C160    0.961   1_455 S
N164   N165    1.351   .     S
N164   Cu611   2.062   .     S
N165   N166    1.308   .     S
N165   Cu590   1.991   .     S
N166   Na639   2.682   .     S
N166   N167    1.352   .     S
N168   Cu614   2.035   .     S
N168   N169    1.348   .     S
N169   Cu476   1.993   .     S
N169   N170    1.318   .     S
N170   N171    1.341   .     S
N171   Na629   2.396   .     S
Cu172  N186    2.047   .     S
Cu172  N189    2.046   .     S
Cu172  N564    1.991   .     S
Cu172  N473    1.993   .     S
C173   C174    1.496   .     S
C173   N183    1.330   .     S
C173   N186    1.337   .     S
C174   H175    0.960   .     S
C174   H176    0.959   .     S
C174   H177    0.961   .     S
C178   C179    1.494   .     S
C178   N187    1.315   .     S
C178   N190    1.334   .     S
C179   H180    0.961   .     S
C179   H181    0.960   .     S
C179   H182    0.960   .     S
N183   N184    1.351   .     S
N183   Cu616   2.062   1_545 S
N184   N185    1.308   .     S
N184   Cu571   1.991   .     S
N185   Na640   2.682   .     S
N185   N186    1.352   .     S
N187   Cu612   2.035   .     S
N187   N188    1.348   .     S
N188   Cu457   1.993   .     S
N188   N189    1.318   .     S
N189   N190    1.341   .     S
N190   Na630   2.396   .     S
Cu191  N205    2.047   .     S
Cu191  N208    2.046   .     S
Cu191  N583    1.991   .     S
Cu191  N530    1.993   .     S
C192   C193    1.496   .     S
C192   N202    1.330   .     S
C192   N205    1.337   .     S
C193   H194    0.960   .     S
C193   H195    0.959   .     S
C193   H196    0.961   .     S
C197   C198    1.494   .     S
C197   N206    1.315   .     S
C197   N209    1.334   .     S
C198   H199    0.961   .     S
C198   H200    0.960   .     S
C198   H201    0.960   .     S
N202   N203    1.351   .     S
N202   Cu609   2.062   .     S
N203   N204    1.308   .     S
N203   Cu552   1.991   .     S
N204   Na640   2.682   .     S
N204   N205    1.352   .     S
N206   Cu615   2.035   .     S
N206   N207    1.348   .     S
N207   Cu514   1.993   .     S
N207   N208    1.318   .     S
N208   N209    1.341   .     S
N209   Na630   2.396   .     S
Cu210  N224    2.047   .     S
Cu210  N227    2.046   .     S
Cu210  N602    1.991   .     S
Cu210  N511    1.993   .     S
C211   C212    1.496   .     S
C211   N221    1.330   .     S
C211   N224    1.337   .     S
C212   H213    0.960   .     S
C212   H214    0.959   .     S
C212   H215    0.961   .     S
C216   C217    1.494   1_655 S
C216   N225    1.315   .     S
C216   N228    1.334   .     S
C217   C216    1.494   1_455 S
C217   H218    0.961   1_455 S
C217   H219    0.960   .     S
C217   H220    0.960   .     S
H218   C217    0.961   1_655 S
N221   N222    1.351   .     S
N221   Cu610   2.062   1_565 S
N222   N223    1.308   .     S
N222   Cu533   1.991   .     S
N223   Na639   2.682   1_655 S
N223   N224    1.352   .     S
N225   Cu613   2.035   .     S
N225   N226    1.348   .     S
N226   Cu495   1.993   .     S
N226   N227    1.318   .     S
N227   N228    1.341   .     S
N228   Na629   2.396   1_655 S
Cu229  N243    2.047   1_455 S
Cu229  N246    2.046   1_455 S
Cu229  N526    1.991   .     S
Cu229  N549    1.993   1_545 S
C230   C231    1.496   1_545 S
C230   N240    1.330   .     S
C230   N243    1.337   .     S
C231   C230    1.496   1_565 S
C231   H232    0.960   .     S
C231   H233    0.959   .     S
C231   H234    0.961   1_565 S
H234   C231    0.961   1_545 S
C235   C236    1.494   .     S
C235   N244    1.315   .     S
C235   N247    1.334   .     S
C236   H237    0.961   .     S
C236   H238    0.960   .     S
C236   H239    0.960   .     S
N240   N241    1.351   .     S
N240   Cu612   2.062   .     S
N241   N242    1.308   .     S
N241   Cu457   1.991   .     S
N242   Na637   2.682   1_655 S
N242   N243    1.352   .     S
N243   Cu229   2.047   1_655 S
N244   Cu610   2.035   .     S
N244   N245    1.348   .     S
N245   Cu533   1.993   1_545 S
N245   N246    1.318   .     S
N246   Cu229   2.046   1_655 S
N246   N247    1.341   .     S
N247   Na631   2.396   1_655 S
Cu248  N262    2.047   .     S
Cu248  N265    2.046   1_556 S
Cu248  N507    1.991   .     S
Cu248  N568    1.993   .     S
C249   C250    1.496   .     S
C249   N259    1.330   .     S
C249   N262    1.337   .     S
C250   H251    0.960   .     S
C250   H252    0.959   .     S
C250   H253    0.961   .     S
C254   C255    1.494   .     S
C254   N263    1.315   .     S
C254   N266    1.334   1_554 S
C255   H256    0.961   .     S
C255   H257    0.960   .     S
C255   H258    0.960   .     S
N259   N260    1.351   .     S
N259   Cu614   2.062   .     S
N260   N261    1.308   .     S
N260   Cu476   1.991   .     S
N261   Na638   2.682   .     S
N261   N262    1.352   .     S
N263   Cu609   2.035   .     S
N263   N264    1.348   .     S
N264   Cu552   1.993   .     S
N264   N265    1.318   .     S
N265   Cu248   2.046   1_554 S
N265   N266    1.341   1_554 S
N266   Na632   2.396   .     S
N266   C254    1.334   1_556 S
N266   N265    1.341   1_556 S
Cu267  N281    2.047   .     S
Cu267  N284    2.046   1_556 S
Cu267  N488    1.991   .     S
Cu267  N587    1.993   1_565 S
C268   C269    1.496   1_565 S
C268   N278    1.330   .     S
C268   N281    1.337   .     S
C269   C268    1.496   1_545 S
C269   H270    0.960   .     S
C269   H271    0.959   .     S
C269   H272    0.961   1_545 S
H272   C269    0.961   1_565 S
C273   C274    1.494   .     S
C273   N282    1.315   .     S
C273   N285    1.334   1_554 S
C274   H275    0.961   .     S
C274   H276    0.960   .     S
C274   H277    0.960   .     S
N278   N279    1.351   .     S
N278   Cu613   2.062   .     S
N279   N280    1.308   .     S
N279   Cu495   1.991   .     S
N280   Na638   2.682   .     S
N280   N281    1.352   .     S
N282   Cu616   2.035   .     S
N282   N283    1.348   .     S
N283   Cu571   1.993   1_565 S
N283   N284    1.318   .     S
N284   Cu267   2.046   1_554 S
N284   N285    1.341   1_554 S
N285   Na632   2.396   .     S
N285   C273    1.334   1_556 S
N285   N284    1.341   1_556 S
Cu286  N300    2.047   1_655 S
Cu286  N303    2.046   1_655 S
Cu286  N469    1.991   .     S
Cu286  N606    1.993   .     S
C287   C288    1.496   .     S
C287   N297    1.330   .     S
C287   N300    1.337   .     S
C288   H289    0.960   .     S
C288   H290    0.959   .     S
C288   H291    0.961   .     S
C292   C293    1.494   .     S
C292   N301    1.315   .     S
C292   N304    1.334   .     S
C293   H294    0.961   .     S
C293   H295    0.960   .     S
C293   H296    0.960   .     S
N297   N298    1.351   .     S
N297   Cu615   2.062   .     S
N298   N299    1.308   .     S
N298   Cu514   1.991   .     S
N299   Na637   2.682   .     S
N299   N300    1.352   .     S
N300   Cu286   2.047   1_455 S
N301   Cu611   2.035   .     S
N301   N302    1.348   .     S
N302   Cu590   1.993   .     S
N302   N303    1.318   .     S
N303   Cu286   2.046   1_455 S
N303   N304    1.341   .     S
N304   Na631   2.396   .     S
Cu305  N319    2.047   .     S
Cu305  N322    2.046   .     S
C306   C307    1.496   .     S
C306   N316    1.330   .     S
C306   N319    1.337   .     S
C307   H308    0.960   .     S
C307   H309    0.959   .     S
C307   H310    0.961   .     S
C311   C312    1.494   .     S
C311   N320    1.315   .     S
C311   N323    1.334   .     S
C312   H313    0.961   .     S
C312   H314    0.960   .     S
C312   H315    0.960   .     S
N316   N317    1.351   .     S
N316   Cu624   2.062   .     S
N317   N318    1.308   .     S
N318   Na627   2.682   .     S
N318   N319    1.352   .     S
N320   Cu617   2.035   .     S
N320   N321    1.348   .     S
N321   N322    1.318   .     S
N322   N323    1.341   .     S
N323   Na633   2.396   .     S
Cu324  N338    2.047   .     S
Cu324  N341    2.046   .     S
C325   C326    1.496   .     S
C325   N335    1.330   .     S
C325   N338    1.337   .     S
C326   H327    0.960   .     S
C326   H328    0.959   .     S
C326   H329    0.961   .     S
C330   C331    1.494   1_455 S
C330   N339    1.315   .     S
C330   N342    1.334   .     S
C331   C330    1.494   1_655 S
C331   H332    0.961   1_655 S
C331   H333    0.960   .     S
C331   H334    0.960   .     S
H332   C331    0.961   1_455 S
N335   N336    1.351   .     S
N335   Cu622   2.062   1_565 S
N336   N337    1.308   .     S
N337   Na628   2.682   .     S
N337   N338    1.352   .     S
N339   Cu618   2.035   .     S
N339   N340    1.348   .     S
N340   N341    1.318   .     S
N341   N342    1.341   .     S
N342   Na634   2.396   .     S
Cu343  N357    2.047   .     S
Cu343  N360    2.046   .     S
C344   C345    1.496   .     S
C344   N354    1.330   .     S
C344   N357    1.337   .     S
C345   H346    0.960   .     S
C345   H347    0.959   .     S
C345   H348    0.961   .     S
C349   C350    1.494   1_655 S
C349   N358    1.315   .     S
C349   N361    1.334   .     S
C350   C349    1.494   1_455 S
C350   H351    0.961   1_455 S
C350   H352    0.960   .     S
C350   H353    0.960   .     S
H351   C350    0.961   1_655 S
N354   N355    1.351   .     S
N354   Cu623   2.062   .     S
N355   N356    1.308   .     S
N356   Na628   2.682   1_655 S
N356   N357    1.352   .     S
N358   Cu619   2.035   .     S
N358   N359    1.348   .     S
N359   N360    1.318   .     S
N360   N361    1.341   .     S
N361   Na634   2.396   1_655 S
Cu362  N376    2.047   .     S
Cu362  N379    2.046   .     S
C363   C364    1.496   .     S
C363   N373    1.330   .     S
C363   N376    1.337   .     S
C364   H365    0.960   .     S
C364   H366    0.959   .     S
C364   H367    0.961   .     S
C368   C369    1.494   .     S
C368   N377    1.315   .     S
C368   N380    1.334   .     S
C369   H370    0.961   .     S
C369   H371    0.960   .     S
C369   H372    0.960   .     S
N373   N374    1.351   .     S
N373   Cu621   2.062   1_545 S
N374   N375    1.308   .     S
N375   Na627   2.682   .     S
N375   N376    1.352   .     S
N377   Cu620   2.035   .     S
N377   N378    1.348   .     S
N378   N379    1.318   .     S
N379   N380    1.341   .     S
N380   Na633   2.396   .     S
Cu381  N395    2.047   .     S
Cu381  N398    2.046   .     S
Cu381  N93     1.993   1_565 S
C382   C383    1.496   1_565 S
C382   N392    1.330   .     S
C382   N395    1.337   .     S
C383   C382    1.496   1_545 S
C383   H384    0.960   .     S
C383   H385    0.959   .     S
C383   H386    0.961   1_545 S
H386   C383    0.961   1_565 S
C387   C388    1.494   .     S
C387   N396    1.315   .     S
C387   N399    1.334   .     S
C388   H389    0.961   .     S
C388   H390    0.960   .     S
C388   H391    0.960   .     S
N392   N393    1.351   .     S
N392   Cu618   2.062   .     S
N393   N394    1.308   .     S
N394   Na625   2.682   .     S
N394   N395    1.352   .     S
N396   Cu621   2.035   .     S
N396   N397    1.348   .     S
N397   Cu77    1.993   1_565 S
N397   N398    1.318   .     S
N398   N399    1.341   .     S
N399   Na635   2.396   .     S
Cu400  N414    2.047   1_455 S
Cu400  N417    2.046   1_456 S
C401   C402    1.496   .     S
C401   N411    1.330   .     S
C401   N414    1.337   .     S
C402   H403    0.960   .     S
C402   H404    0.959   .     S
C402   H405    0.961   .     S
C406   C407    1.494   .     S
C406   N415    1.315   .     S
C406   N418    1.334   1_554 S
C407   H408    0.961   .     S
C407   H409    0.960   .     S
C407   H410    0.960   .     S
N411   N412    1.351   .     S
N411   Cu617   2.062   .     S
N412   N413    1.308   .     S
N413   Na626   2.682   1_655 S
N413   N414    1.352   .     S
N414   Cu400   2.047   1_655 S
N415   Cu623   2.035   .     S
N415   N416    1.348   .     S
N416   N417    1.318   .     S
N417   Cu400   2.046   1_654 S
N417   N418    1.341   1_554 S
N418   Na636   2.396   1_655 S
N418   C406    1.334   1_556 S
N418   N417    1.341   1_556 S
Cu419  N433    2.047   1_655 S
Cu419  N436    2.046   1_656 S
Cu419  N131    1.993   1_545 S
C420   C421    1.496   1_545 S
C420   N430    1.330   .     S
C420   N433    1.337   .     S
C421   C420    1.496   1_565 S
C421   H422    0.960   .     S
C421   H423    0.959   .     S
C421   H424    0.961   1_565 S
H424   C421    0.961   1_545 S
C425   C426    1.494   .     S
C425   N434    1.315   .     S
C425   N437    1.334   1_554 S
C426   H427    0.961   .     S
C426   H428    0.960   .     S
C426   H429    0.960   .     S
N430   N431    1.351   .     S
N430   Cu620   2.062   .     S
N431   N432    1.308   .     S
N432   Na626   2.682   .     S
N432   N433    1.352   .     S
N433   Cu419   2.047   1_455 S
N434   Cu622   2.035   .     S
N434   N435    1.348   .     S
N435   Cu115   1.993   1_545 S
N435   N436    1.318   .     S
N436   Cu419   2.046   1_454 S
N436   N437    1.341   1_554 S
N437   Na636   2.396   .     S
N437   C425    1.334   1_556 S
N437   N436    1.341   1_556 S
Cu438  N452    2.047   .     S
Cu438  N455    2.046   .     S
C439   C440    1.496   .     S
C439   N449    1.330   .     S
C439   N452    1.337   .     S
C440   H441    0.960   .     S
C440   H442    0.959   .     S
C440   H443    0.961   .     S
C444   C445    1.494   .     S
C444   N453    1.315   .     S
C444   N456    1.334   .     S
C445   H446    0.961   .     S
C445   H447    0.960   .     S
C445   H448    0.960   .     S
N449   N450    1.351   .     S
N449   Cu619   2.062   .     S
N450   N451    1.308   .     S
N451   Na625   2.682   .     S
N451   N452    1.352   .     S
N453   Cu624   2.035   .     S
N453   N454    1.348   .     S
N454   N455    1.318   .     S
N455   N456    1.341   .     S
N456   Na635   2.396   .     S
Cu457  N471    2.047   .     S
Cu457  N474    2.046   .     S
C458   C459    1.496   .     S
C458   N468    1.330   .     S
C458   N471    1.337   .     S
C459   H460    0.960   .     S
C459   H461    0.959   .     S
C459   H462    0.961   .     S
C463   C464    1.494   1_655 S
C463   N472    1.315   .     S
C463   N475    1.334   .     S
C464   C463    1.494   1_455 S
C464   H465    0.961   1_455 S
C464   H466    0.960   .     S
C464   H467    0.960   .     S
H465   C464    0.961   1_655 S
N468   N469    1.351   .     S
N468   Cu619   2.062   .     S
N469   N470    1.308   .     S
N470   Na631   2.682   1_655 S
N470   N471    1.352   .     S
N472   Cu623   2.035   .     S
N472   N473    1.348   .     S
N473   N474    1.318   .     S
N474   N475    1.341   .     S
N475   Na637   2.396   1_655 S
Cu476  N490    2.047   .     S
Cu476  N493    2.046   .     S
C477   C478    1.496   .     S
C477   N487    1.330   .     S
C477   N490    1.337   .     S
C478   H479    0.960   .     S
C478   H480    0.959   .     S
C478   H481    0.961   .     S
C482   C483    1.494   .     S
C482   N491    1.315   .     S
C482   N494    1.334   .     S
C483   H484    0.961   .     S
C483   H485    0.960   .     S
C483   H486    0.960   .     S
N487   N488    1.351   .     S
N487   Cu620   2.062   1_565 S
N488   N489    1.308   .     S
N489   Na632   2.682   .     S
N489   N490    1.352   .     S
N491   Cu621   2.035   .     S
N491   N492    1.348   .     S
N492   N493    1.318   .     S
N493   N494    1.341   .     S
N494   Na638   2.396   .     S
Cu495  N509    2.047   .     S
Cu495  N512    2.046   .     S
C496   C497    1.496   .     S
C496   N506    1.330   .     S
C496   N509    1.337   .     S
C497   H498    0.960   .     S
C497   H499    0.959   .     S
C497   H500    0.961   .     S
C501   C502    1.494   .     S
C501   N510    1.315   .     S
C501   N513    1.334   .     S
C502   H503    0.961   .     S
C502   H504    0.960   .     S
C502   H505    0.960   .     S
N506   N507    1.351   .     S
N506   Cu617   2.062   .     S
N507   N508    1.308   .     S
N508   Na632   2.682   .     S
N508   N509    1.352   .     S
N510   Cu624   2.035   .     S
N510   N511    1.348   .     S
N511   N512    1.318   .     S
N512   N513    1.341   .     S
N513   Na638   2.396   .     S
Cu514  N528    2.047   .     S
Cu514  N531    2.046   .     S
C515   C516    1.496   .     S
C515   N525    1.330   .     S
C515   N528    1.337   .     S
C516   H517    0.960   .     S
C516   H518    0.959   .     S
C516   H519    0.961   .     S
C520   C521    1.494   1_455 S
C520   N529    1.315   .     S
C520   N532    1.334   .     S
C521   C520    1.494   1_655 S
C521   H522    0.961   1_655 S
C521   H523    0.960   .     S
C521   H524    0.960   .     S
H522   C521    0.961   1_455 S
N525   N526    1.351   .     S
N525   Cu618   2.062   1_545 S
N526   N527    1.308   .     S
N527   Na631   2.682   .     S
N527   N528    1.352   .     S
N529   Cu622   2.035   .     S
N529   N530    1.348   .     S
N530   N531    1.318   .     S
N531   N532    1.341   .     S
N532   Na637   2.396   .     S
Cu533  N547    2.047   1_655 S
Cu533  N550    2.046   1_655 S
Cu533  N245    1.993   1_565 S
C534   C535    1.496   1_565 S
C534   N544    1.330   .     S
C534   N547    1.337   .     S
C535   C534    1.496   1_545 S
C535   H536    0.960   .     S
C535   H537    0.959   .     S
C535   H538    0.961   1_545 S
H538   C535    0.961   1_565 S
C539   C540    1.494   .     S
C539   N548    1.315   .     S
C539   N551    1.334   .     S
C540   H541    0.961   .     S
C540   H542    0.960   .     S
C540   H543    0.960   .     S
N544   N545    1.351   .     S
N544   Cu621   2.062   .     S
N545   N546    1.308   .     S
N546   Na629   2.682   .     S
N546   N547    1.352   .     S
N547   Cu533   2.047   1_455 S
N548   Cu618   2.035   .     S
N548   N549    1.348   .     S
N549   Cu229   1.993   1_565 S
N549   N550    1.318   .     S
N550   Cu533   2.046   1_455 S
N550   N551    1.341   .     S
N551   Na639   2.396   .     S
Cu552  N566    2.047   .     S
Cu552  N569    2.046   1_554 S
C553   C554    1.496   .     S
C553   N563    1.330   .     S
C553   N566    1.337   .     S
C554   H555    0.960   .     S
C554   H556    0.959   .     S
C554   H557    0.961   .     S
C558   C559    1.494   .     S
C558   N567    1.315   .     S
C558   N570    1.334   1_556 S
C559   H560    0.961   .     S
C559   H561    0.960   .     S
C559   H562    0.960   .     S
N563   N564    1.351   .     S
N563   Cu623   2.062   .     S
N564   N565    1.308   .     S
N565   Na630   2.682   .     S
N565   N566    1.352   .     S
N567   Cu617   2.035   .     S
N567   N568    1.348   .     S
N568   N569    1.318   .     S
N569   Cu552   2.046   1_556 S
N569   N570    1.341   1_556 S
N570   Na640   2.396   .     S
N570   C558    1.334   1_554 S
N570   N569    1.341   1_554 S
Cu571  N585    2.047   .     S
Cu571  N588    2.046   1_554 S
Cu571  N283    1.993   1_545 S
C572   C573    1.496   1_545 S
C572   N582    1.330   .     S
C572   N585    1.337   .     S
C573   C572    1.496   1_565 S
C573   H574    0.960   .     S
C573   H575    0.959   .     S
C573   H576    0.961   1_565 S
H576   C573    0.961   1_545 S
C577   C578    1.494   .     S
C577   N586    1.315   .     S
C577   N589    1.334   1_556 S
C578   H579    0.961   .     S
C578   H580    0.960   .     S
C578   H581    0.960   .     S
N582   N583    1.351   .     S
N582   Cu622   2.062   .     S
N583   N584    1.308   .     S
N584   Na630   2.682   .     S
N584   N585    1.352   .     S
N586   Cu620   2.035   .     S
N586   N587    1.348   .     S
N587   Cu267   1.993   1_545 S
N587   N588    1.318   .     S
N588   Cu571   2.046   1_556 S
N588   N589    1.341   1_556 S
N589   Na640   2.396   .     S
N589   C577    1.334   1_554 S
N589   N588    1.341   1_554 S
Cu590  N604    2.047   1_455 S
Cu590  N607    2.046   1_455 S
C591   C592    1.496   .     S
C591   N601    1.330   .     S
C591   N604    1.337   .     S
C592   H593    0.960   .     S
C592   H594    0.959   .     S
C592   H595    0.961   .     S
C596   C597    1.494   .     S
C596   N605    1.315   .     S
C596   N608    1.334   .     S
C597   H598    0.961   .     S
C597   H599    0.960   .     S
C597   H600    0.960   .     S
N601   N602    1.351   .     S
N601   Cu624   2.062   .     S
N602   N603    1.308   .     S
N603   Na629   2.682   1_655 S
N603   N604    1.352   .     S
N604   Cu590   2.047   1_655 S
N605   Cu619   2.035   .     S
N605   N606    1.348   .     S
N606   N607    1.318   .     S
N607   Cu590   2.046   1_655 S
N607   N608    1.341   .     S
N608   Na639   2.396   1_655 S
Cu610  N221    2.062   1_545 S
Cu612  N69     2.062   1_545 S
Cu613  N31     2.062   1_565 S
Cu616  N183    2.062   1_565 S
Cu618  N525    2.062   1_565 S
Cu620  N487    2.062   1_545 S
Cu621  N373    2.062   1_565 S
Cu622  N335    2.062   1_545 S
Na626  N38     2.396   1_455 S
Na626  N413    2.682   1_455 S
Na628  N133    2.396   1_455 S
Na628  N356    2.682   1_455 S
Na629  N228    2.396   1_455 S
Na629  N603    2.682   1_455 S
Na631  N247    2.396   1_455 S
Na631  N470    2.682   1_455 S
Na634  N361    2.396   1_455 S
Na634  N128    2.682   1_455 S
Na636  N418    2.396   1_455 S
Na636  N33     2.682   1_455 S
Na637  N475    2.396   1_455 S
Na637  N242    2.682   1_455 S
Na639  N608    2.396   1_455 S
Na639  N223    2.682   1_455 S
