data_KEQCAM_FSR
_audit_creation_date              2024-06-11
_audit_creation_method            'Materials Studio'
_symmetry_space_group_name_H-M    'P1'
_symmetry_Int_Tables_number       1
_symmetry_cell_setting            triclinic
loop_
_symmetry_equiv_pos_as_xyz
  x,y,z
_cell_length_a                    23.1020
_cell_length_b                    23.1020
_cell_length_c                    59.9770
_cell_angle_alpha                 90.0000
_cell_angle_beta                  90.0000
_cell_angle_gamma                 120.0000
loop_
_atom_site_label
_atom_site_type_symbol
_atom_site_fract_x
_atom_site_fract_y
_atom_site_fract_z
_atom_site_U_iso_or_equiv
_atom_site_adp_type
_atom_site_occupancy
Zn1    Zn    0.98313   0.19333   0.36638   0.00000  Uiso   1.00
O2     O     0.94474   0.17233   0.31954   0.00000  Uiso   1.00
O3     O     0.93982   0.11142   0.34900   0.00000  Uiso   1.00
O4     O     0.07504   0.15236   0.37716   0.00000  Uiso   1.00
O5     O     0.08070   0.24309   0.36266   0.00000  Uiso   1.00
O6     O     0.72820   0.70066   0.36426   0.00000  Uiso   1.00
O7     O     0.78890   0.65160   0.36261   0.00000  Uiso   1.00
O8     O     0.43020   0.72580   0.20577   0.00000  Uiso   1.00
O9     O     0.47050   0.68880   0.18348   0.00000  Uiso   1.00
O10    O     0.94854   0.15539   0.39674   0.00000  Uiso   1.00
N11    N     0.38810   0.32591   0.36080   0.00000  Uiso   1.00
N12    N     0.49293   0.39925   0.35921   0.00000  Uiso   1.00
N13    N     0.77592   0.87915   0.27929   0.00000  Uiso   1.00
N14    N     0.69826   0.81160   0.25676   0.00000  Uiso   1.00
N15    N     0.88910   0.13770   0.42620   0.00000  Uiso   1.00
C16    C     0.92758   0.11816   0.32883   0.00000  Uiso   1.00
C17    C     0.89058   0.05487   0.31565   0.00000  Uiso   1.00
C18    C     0.86975   0.05784   0.29405   0.00000  Uiso   1.00
H19    H     0.88070   0.09970   0.28770   0.00000  Uiso   1.00
C20    C     0.83340  -0.00000   0.28203   0.00000  Uiso   1.00
H21    H     0.81910   0.00150   0.26730   0.00000  Uiso   1.00
C22    C     0.81773   0.93935   0.29172   0.00000  Uiso   1.00
C23    C     0.83846   0.93501   0.31237   0.00000  Uiso   1.00
H24    H     0.82840   0.89290   0.31840   0.00000  Uiso   1.00
C25    C     0.87520   0.99383   0.32480   0.00000  Uiso   1.00
H26    H     0.88950   0.99180   0.33950   0.00000  Uiso   1.00
C27    C     0.78090   0.82280   0.27748   0.00000  Uiso   1.00
H28    H     0.81280   0.81520   0.28490   0.00000  Uiso   1.00
C29    C     0.73400   0.78050   0.26364   0.00000  Uiso   1.00
H30    H     0.72620   0.73770   0.25930   0.00000  Uiso   1.00
C31    C     0.72560   0.87120   0.26662   0.00000  Uiso   1.00
H32    H     0.71130   0.90290   0.26480   0.00000  Uiso   1.00
C33    C     0.64190   0.78720   0.24255   0.00000  Uiso   1.00
C34    C     0.59620   0.80510   0.24604   0.00000  Uiso   1.00
H35    H     0.60110   0.83390   0.25810   0.00000  Uiso   1.00
C36    C     0.54120   0.78110   0.23189   0.00000  Uiso   1.00
H37    H     0.50930   0.79490   0.23430   0.00000  Uiso   1.00
C38    C     0.53200   0.74170   0.21593   0.00000  Uiso   1.00
C39    C     0.58180   0.72470   0.21040   0.00000  Uiso   1.00
H40    H     0.57920   0.70110   0.19710   0.00000  Uiso   1.00
C41    C     0.63440   0.74460   0.22547   0.00000  Uiso   1.00
H42    H     0.66500   0.72870   0.22390   0.00000  Uiso   1.00
C43    C     0.47340   0.71980   0.20120   0.00000  Uiso   1.00
C44    C     0.73532   0.64936   0.36295   0.00000  Uiso   1.00
C45    C     0.67097   0.58402   0.36156   0.00000  Uiso   1.00
C46    C     0.67195   0.52451   0.36274   0.00000  Uiso   1.00
H47    H     0.71340   0.52560   0.36420   0.00000  Uiso   1.00
C48    C     0.61334   0.46374   0.36183   0.00000  Uiso   1.00
H49    H     0.61440   0.42320   0.36250   0.00000  Uiso   1.00
C50    C     0.55352   0.46235   0.35987   0.00000  Uiso   1.00
C51    C     0.55179   0.52089   0.35739   0.00000  Uiso   1.00
H52    H     0.51060   0.51950   0.35470   0.00000  Uiso   1.00
C53    C     0.61040   0.58158   0.35887   0.00000  Uiso   1.00
H54    H     0.60900   0.62190   0.35800   0.00000  Uiso   1.00
C55    C     0.48767   0.33658   0.36014   0.00000  Uiso   1.00
H56    H     0.52370   0.32780   0.36020   0.00000  Uiso   1.00
C57    C     0.42334   0.29165   0.36090   0.00000  Uiso   1.00
H58    H     0.40460   0.24450   0.36140   0.00000  Uiso   1.00
C59    C     0.43109   0.39063   0.35914   0.00000  Uiso   1.00
H60    H     0.42010   0.42510   0.35810   0.00000  Uiso   1.00
C61    C     0.31672   0.29607   0.36202   0.00000  Uiso   1.00
C62    C     0.28571   0.32812   0.35262   0.00000  Uiso   1.00
H63    H     0.31080   0.36850   0.34450   0.00000  Uiso   1.00
C64    C     0.28077   0.23534   0.37267   0.00000  Uiso   1.00
H65    H     0.30270   0.21310   0.37850   0.00000  Uiso   1.00
C66    C     0.21200   0.20710   0.37473   0.00000  Uiso   1.00
H67    H     0.18660   0.16530   0.38200   0.00000  Uiso   1.00
C68    C     0.18030   0.23970   0.36618   0.00000  Uiso   1.00
C69    C     0.21820   0.30048   0.35524   0.00000  Uiso   1.00
H70    H     0.19670   0.32320   0.34950   0.00000  Uiso   1.00
C71    C     0.10651   0.20810   0.36922   0.00000  Uiso   1.00
C72    C     0.92640   0.17440   0.40890   0.00000  Uiso   1.00
C73    C     0.89180   0.07720   0.43250   0.00000  Uiso   1.00
H74    H     0.86170   0.05530   0.44520   0.00000  Uiso   1.00
H75    H     0.93760   0.08990   0.43680   0.00000  Uiso   1.00
H76    H     0.87780   0.04640   0.41980   0.00000  Uiso   1.00
C77    C     0.83830   0.15460   0.43960   0.00000  Uiso   1.00
H78    H     0.84680   0.19910   0.43540   0.00000  Uiso   1.00
H79    H     0.84540   0.15370   0.45570   0.00000  Uiso   1.00
H80    H     0.79210   0.12130   0.43590   0.00000  Uiso   1.00
Zn81   Zn    0.64980   0.52666   0.69971   0.00000  Uiso   1.00
O82    O     0.61141   0.50566   0.65287   0.00000  Uiso   1.00
O83    O     0.60649   0.44475   0.68233   0.00000  Uiso   1.00
O84    O     0.74171   0.48569   0.71049   0.00000  Uiso   1.00
O85    O     0.74737   0.57642   0.69599   0.00000  Uiso   1.00
O86    O     0.39487   0.03399   0.69759   0.00000  Uiso   1.00
O87    O     0.45557   0.98493   0.69594   0.00000  Uiso   1.00
O88    O     0.09687   0.05913   0.53910   0.00000  Uiso   1.00
O89    O     0.13717   0.02213   0.51681   0.00000  Uiso   1.00
O90    O     0.61521   0.48872   0.73007   0.00000  Uiso   1.00
N91    N     0.05477   0.65924   0.69413   0.00000  Uiso   1.00
N92    N     0.15960   0.73258   0.69254   0.00000  Uiso   1.00
N93    N     0.44259   0.21248   0.61262   0.00000  Uiso   1.00
N94    N     0.36493   0.14493   0.59009   0.00000  Uiso   1.00
N95    N     0.55577   0.47103   0.75953   0.00000  Uiso   1.00
C96    C     0.59425   0.45149   0.66216   0.00000  Uiso   1.00
C97    C     0.55725   0.38820   0.64898   0.00000  Uiso   1.00
C98    C     0.53642   0.39117   0.62738   0.00000  Uiso   1.00
H99    H     0.54737   0.43303   0.62103   0.00000  Uiso   1.00
C100   C     0.50007   0.33333   0.61536   0.00000  Uiso   1.00
H101   H     0.48577   0.33483   0.60063   0.00000  Uiso   1.00
C102   C     0.48440   0.27268   0.62505   0.00000  Uiso   1.00
C103   C     0.50513   0.26834   0.64570   0.00000  Uiso   1.00
H104   H     0.49507   0.22623   0.65173   0.00000  Uiso   1.00
C105   C     0.54187   0.32716   0.65813   0.00000  Uiso   1.00
H106   H     0.55617   0.32513   0.67283   0.00000  Uiso   1.00
C107   C     0.44757   0.15613   0.61081   0.00000  Uiso   1.00
H108   H     0.47947   0.14853   0.61823   0.00000  Uiso   1.00
C109   C     0.40067   0.11383   0.59697   0.00000  Uiso   1.00
H110   H     0.39287   0.07103   0.59263   0.00000  Uiso   1.00
C111   C     0.39227   0.20453   0.59995   0.00000  Uiso   1.00
H112   H     0.37797   0.23623   0.59813   0.00000  Uiso   1.00
C113   C     0.30857   0.12053   0.57588   0.00000  Uiso   1.00
C114   C     0.26287   0.13843   0.57937   0.00000  Uiso   1.00
H115   H     0.26777   0.16723   0.59143   0.00000  Uiso   1.00
C116   C     0.20787   0.11443   0.56522   0.00000  Uiso   1.00
H117   H     0.17597   0.12823   0.56763   0.00000  Uiso   1.00
C118   C     0.19867   0.07503   0.54926   0.00000  Uiso   1.00
C119   C     0.24847   0.05803   0.54373   0.00000  Uiso   1.00
H120   H     0.24587   0.03443   0.53043   0.00000  Uiso   1.00
C121   C     0.30107   0.07793   0.55880   0.00000  Uiso   1.00
H122   H     0.33167   0.06203   0.55723   0.00000  Uiso   1.00
C123   C     0.14007   0.05313   0.53453   0.00000  Uiso   1.00
C124   C     0.40199   0.98269   0.69628   0.00000  Uiso   1.00
C125   C     0.33764   0.91735   0.69489   0.00000  Uiso   1.00
C126   C     0.33862   0.85784   0.69607   0.00000  Uiso   1.00
H127   H     0.38007   0.85893   0.69753   0.00000  Uiso   1.00
C128   C     0.28001   0.79707   0.69516   0.00000  Uiso   1.00
H129   H     0.28107   0.75653   0.69583   0.00000  Uiso   1.00
C130   C     0.22019   0.79568   0.69320   0.00000  Uiso   1.00
C131   C     0.21846   0.85422   0.69072   0.00000  Uiso   1.00
H132   H     0.17727   0.85283   0.68803   0.00000  Uiso   1.00
C133   C     0.27707   0.91491   0.69220   0.00000  Uiso   1.00
H134   H     0.27567   0.95523   0.69133   0.00000  Uiso   1.00
C135   C     0.15434   0.66991   0.69347   0.00000  Uiso   1.00
H136   H     0.19037   0.66113   0.69353   0.00000  Uiso   1.00
C137   C     0.09001   0.62498   0.69423   0.00000  Uiso   1.00
H138   H     0.07127   0.57783   0.69473   0.00000  Uiso   1.00
C139   C     0.09776   0.72396   0.69247   0.00000  Uiso   1.00
H140   H     0.08677   0.75843   0.69143   0.00000  Uiso   1.00
C141   C     0.98339   0.62940   0.69535   0.00000  Uiso   1.00
C142   C     0.95238   0.66145   0.68595   0.00000  Uiso   1.00
H143   H     0.97747   0.70183   0.67783   0.00000  Uiso   1.00
C144   C     0.94744   0.56867   0.70600   0.00000  Uiso   1.00
H145   H     0.96937   0.54643   0.71183   0.00000  Uiso   1.00
C146   C     0.87867   0.54043   0.70806   0.00000  Uiso   1.00
H147   H     0.85327   0.49863   0.71533   0.00000  Uiso   1.00
C148   C     0.84697   0.57303   0.69951   0.00000  Uiso   1.00
C149   C     0.88487   0.63381   0.68857   0.00000  Uiso   1.00
H150   H     0.86337   0.65653   0.68283   0.00000  Uiso   1.00
C151   C     0.77318   0.54143   0.70255   0.00000  Uiso   1.00
C152   C     0.59307   0.50773   0.74223   0.00000  Uiso   1.00
C153   C     0.55847   0.41053   0.76583   0.00000  Uiso   1.00
H154   H     0.52837   0.38863   0.77853   0.00000  Uiso   1.00
H155   H     0.60427   0.42323   0.77013   0.00000  Uiso   1.00
H156   H     0.54447   0.37973   0.75313   0.00000  Uiso   1.00
C157   C     0.50497   0.48793   0.77293   0.00000  Uiso   1.00
H158   H     0.51347   0.53243   0.76873   0.00000  Uiso   1.00
H159   H     0.51207   0.48703   0.78903   0.00000  Uiso   1.00
H160   H     0.45877   0.45463   0.76923   0.00000  Uiso   1.00
Zn161  Zn    0.31647   0.85999   1.03304   0.00000  Uiso   1.00
O162   O     0.27807   0.83900   0.98621   0.00000  Uiso   1.00
O163   O     0.27315   0.77809   1.01567   0.00000  Uiso   1.00
O164   O     0.40837   0.81903   1.04383   0.00000  Uiso   1.00
O165   O     0.41403   0.90976   1.02933   0.00000  Uiso   1.00
O166   O     0.06153   0.36733   1.03093   0.00000  Uiso   1.00
O167   O     0.12223   0.31827   1.02928   0.00000  Uiso   1.00
O168   O     0.76353   0.39247   0.87244   0.00000  Uiso   1.00
O169   O     0.80383   0.35547   0.85015   0.00000  Uiso   1.00
O170   O     0.28187   0.82206   1.06341   0.00000  Uiso   1.00
N171   N     0.72143   0.99258   1.02747   0.00000  Uiso   1.00
N172   N     0.82626   0.06592   1.02588   0.00000  Uiso   1.00
N173   N     0.10925   0.54582   0.94596   0.00000  Uiso   1.00
N174   N     0.03159   0.47827   0.92343   0.00000  Uiso   1.00
N175   N     0.22243   0.80437   1.09287   0.00000  Uiso   1.00
C176   C     0.26091   0.78483   0.99550   0.00000  Uiso   1.00
C177   C     0.22391   0.72154   0.98232   0.00000  Uiso   1.00
C178   C     0.20308   0.72451   0.96072   0.00000  Uiso   1.00
H179   H     0.21403   0.76637   0.95437   0.00000  Uiso   1.00
C180   C     0.16673   0.66667   0.94870   0.00000  Uiso   1.00
H181   H     0.15243   0.66817   0.93397   0.00000  Uiso   1.00
C182   C     0.15106   0.60602   0.95839   0.00000  Uiso   1.00
C183   C     0.17179   0.60168   0.97904   0.00000  Uiso   1.00
H184   H     0.16173   0.55957   0.98507   0.00000  Uiso   1.00
C185   C     0.20853   0.66050   0.99147   0.00000  Uiso   1.00
H186   H     0.22283   0.65847   1.00617   0.00000  Uiso   1.00
C187   C     0.11423   0.48947   0.94415   0.00000  Uiso   1.00
H188   H     0.14613   0.48187   0.95157   0.00000  Uiso   1.00
C189   C     0.06733   0.44717   0.93031   0.00000  Uiso   1.00
H190   H     0.05953   0.40437   0.92597   0.00000  Uiso   1.00
C191   C     0.05893   0.53787   0.93329   0.00000  Uiso   1.00
H192   H     0.04463   0.56957   0.93147   0.00000  Uiso   1.00
C193   C     0.97523   0.45387   0.90922   0.00000  Uiso   1.00
C194   C     0.92953   0.47177   0.91271   0.00000  Uiso   1.00
H195   H     0.93443   0.50057   0.92477   0.00000  Uiso   1.00
C196   C     0.87453   0.44777   0.89856   0.00000  Uiso   1.00
H197   H     0.84263   0.46157   0.90097   0.00000  Uiso   1.00
C198   C     0.86533   0.40837   0.88260   0.00000  Uiso   1.00
C199   C     0.91513   0.39137   0.87707   0.00000  Uiso   1.00
H200   H     0.91253   0.36777   0.86377   0.00000  Uiso   1.00
C201   C     0.96773   0.41127   0.89214   0.00000  Uiso   1.00
H202   H     0.99833   0.39537   0.89057   0.00000  Uiso   1.00
C203   C     0.80673   0.38647   0.86787   0.00000  Uiso   1.00
C204   C     0.06865   0.31603   1.02962   0.00000  Uiso   1.00
C205   C     0.00430   0.25069   1.02823   0.00000  Uiso   1.00
C206   C     0.00528   0.19118   1.02941   0.00000  Uiso   1.00
H207   H     0.04673   0.19227   1.03087   0.00000  Uiso   1.00
C208   C     0.94667   0.13041   1.02850   0.00000  Uiso   1.00
H209   H     0.94773   0.08987   1.02917   0.00000  Uiso   1.00
C210   C     0.88685   0.12902   1.02654   0.00000  Uiso   1.00
C211   C     0.88512   0.18756   1.02406   0.00000  Uiso   1.00
H212   H     0.84393   0.18617   1.02137   0.00000  Uiso   1.00
C213   C     0.94373   0.24825   1.02554   0.00000  Uiso   1.00
H214   H     0.94233   0.28857   1.02467   0.00000  Uiso   1.00
C215   C     0.82100   0.00325   1.02681   0.00000  Uiso   1.00
H216   H     0.85703   0.99447   1.02687   0.00000  Uiso   1.00
C217   C     0.75667   0.95832   1.02757   0.00000  Uiso   1.00
H218   H     0.73793   0.91117   1.02807   0.00000  Uiso   1.00
C219   C     0.76442   0.05730   1.02581   0.00000  Uiso   1.00
H220   H     0.75343   0.09177   1.02477   0.00000  Uiso   1.00
C221   C     0.65005   0.96274   1.02869   0.00000  Uiso   1.00
C222   C     0.61904   0.99479   1.01929   0.00000  Uiso   1.00
H223   H     0.64413   0.03517   1.01117   0.00000  Uiso   1.00
C224   C     0.61410   0.90201   1.03934   0.00000  Uiso   1.00
H225   H     0.63603   0.87977   1.04517   0.00000  Uiso   1.00
C226   C     0.54533   0.87377   1.04140   0.00000  Uiso   1.00
H227   H     0.51993   0.83197   1.04867   0.00000  Uiso   1.00
C228   C     0.51363   0.90637   1.03285   0.00000  Uiso   1.00
C229   C     0.55153   0.96715   1.02191   0.00000  Uiso   1.00
H230   H     0.53003   0.98987   1.01617   0.00000  Uiso   1.00
C231   C     0.43984   0.87477   1.03589   0.00000  Uiso   1.00
C232   C     0.25973   0.84107   1.07557   0.00000  Uiso   1.00
C233   C     0.22513   0.74387   1.09917   0.00000  Uiso   1.00
H234   H     0.19503   0.72197   1.11187   0.00000  Uiso   1.00
H235   H     0.27093   0.75657   1.10347   0.00000  Uiso   1.00
H236   H     0.21113   0.71307   1.08647   0.00000  Uiso   1.00
C237   C     0.17163   0.82127   1.10627   0.00000  Uiso   1.00
H238   H     0.18013   0.86577   1.10207   0.00000  Uiso   1.00
H239   H     0.17873   0.82037   1.12237   0.00000  Uiso   1.00
H240   H     0.12543   0.78797   1.10257   0.00000  Uiso   1.00
Zn241  Zn    0.80668   0.78981   0.36638   0.00000  Uiso   1.00
O242   O     0.82767   0.77241   0.31954   0.00000  Uiso   1.00
O243   O     0.88858   0.82840   0.34900   0.00000  Uiso   1.00
O244   O     0.84764   0.92268   0.37716   0.00000  Uiso   1.00
O245   O     0.75691   0.83761   0.36266   0.00000  Uiso   1.00
O246   O     0.29934   0.02754   0.36426   0.00000  Uiso   1.00
O247   O     0.34840   0.13730   0.36261   0.00000  Uiso   1.00
O248   O     0.27420   0.70440   0.20577   0.00000  Uiso   1.00
O249   O     0.31120   0.78170   0.18348   0.00000  Uiso   1.00
O250   O     0.84461   0.79315   0.39674   0.00000  Uiso   1.00
N251   N     0.67409   0.06219   0.36080   0.00000  Uiso   1.00
N252   N     0.60075   0.09368   0.35921   0.00000  Uiso   1.00
N253   N     0.12085   0.89677   0.27929   0.00000  Uiso   1.00
N254   N     0.18840   0.88666   0.25676   0.00000  Uiso   1.00
N255   N     0.86230   0.75140   0.42620   0.00000  Uiso   1.00
C256   C     0.88184   0.80942   0.32883   0.00000  Uiso   1.00
C257   C     0.94513   0.83571   0.31565   0.00000  Uiso   1.00
C258   C     0.94216   0.81191   0.29405   0.00000  Uiso   1.00
H259   H     0.90030   0.78100   0.28770   0.00000  Uiso   1.00
C260   C     0.00000   0.83340   0.28203   0.00000  Uiso   1.00
H261   H     0.99850   0.81760   0.26730   0.00000  Uiso   1.00
C262   C     0.06065   0.87838   0.29172   0.00000  Uiso   1.00
C263   C     0.06499   0.90345   0.31237   0.00000  Uiso   1.00
H264   H     0.10710   0.93550   0.31840   0.00000  Uiso   1.00
C265   C     0.00617   0.88137   0.32480   0.00000  Uiso   1.00
H266   H     0.00820   0.89770   0.33950   0.00000  Uiso   1.00
C267   C     0.17720   0.95810   0.27748   0.00000  Uiso   1.00
H268   H     0.18480   0.99760   0.28490   0.00000  Uiso   1.00
C269   C     0.21950   0.95350   0.26364   0.00000  Uiso   1.00
H270   H     0.26230   0.98850   0.25930   0.00000  Uiso   1.00
C271   C     0.12880   0.85440   0.26662   0.00000  Uiso   1.00
H272   H     0.09710   0.80840   0.26480   0.00000  Uiso   1.00
C273   C     0.21280   0.85470   0.24255   0.00000  Uiso   1.00
C274   C     0.19490   0.79110   0.24604   0.00000  Uiso   1.00
H275   H     0.16610   0.76720   0.25810   0.00000  Uiso   1.00
C276   C     0.21890   0.76010   0.23189   0.00000  Uiso   1.00
H277   H     0.20510   0.71440   0.23430   0.00000  Uiso   1.00
C278   C     0.25830   0.79030   0.21593   0.00000  Uiso   1.00
C279   C     0.27530   0.85710   0.21040   0.00000  Uiso   1.00
H280   H     0.29890   0.87810   0.19710   0.00000  Uiso   1.00
C281   C     0.25540   0.88980   0.22547   0.00000  Uiso   1.00
H282   H     0.27130   0.93630   0.22390   0.00000  Uiso   1.00
C283   C     0.28020   0.75360   0.20120   0.00000  Uiso   1.00
C284   C     0.35064   0.08596   0.36295   0.00000  Uiso   1.00
C285   C     0.41598   0.08695   0.36156   0.00000  Uiso   1.00
C286   C     0.47549   0.14744   0.36274   0.00000  Uiso   1.00
H287   H     0.47440   0.18780   0.36420   0.00000  Uiso   1.00
C288   C     0.53626   0.14960   0.36183   0.00000  Uiso   1.00
H289   H     0.57680   0.19120   0.36250   0.00000  Uiso   1.00
C290   C     0.53765   0.09117   0.35987   0.00000  Uiso   1.00
C291   C     0.47911   0.03090   0.35739   0.00000  Uiso   1.00
H292   H     0.48050   0.99110   0.35470   0.00000  Uiso   1.00
C293   C     0.41842   0.02882   0.35887   0.00000  Uiso   1.00
H294   H     0.37810   0.98710   0.35800   0.00000  Uiso   1.00
C295   C     0.66342   0.15109   0.36014   0.00000  Uiso   1.00
H296   H     0.67220   0.19590   0.36020   0.00000  Uiso   1.00
C297   C     0.70835   0.13169   0.36090   0.00000  Uiso   1.00
H298   H     0.75550   0.16010   0.36140   0.00000  Uiso   1.00
C299   C     0.60937   0.04046   0.35914   0.00000  Uiso   1.00
H300   H     0.57490   0.99500   0.35810   0.00000  Uiso   1.00
C301   C     0.70393   0.02065   0.36202   0.00000  Uiso   1.00
C302   C     0.67188   0.95759   0.35262   0.00000  Uiso   1.00
H303   H     0.63150   0.94230   0.34450   0.00000  Uiso   1.00
C304   C     0.76466   0.04543   0.37267   0.00000  Uiso   1.00
H305   H     0.78690   0.08960   0.37850   0.00000  Uiso   1.00
C306   C     0.79290   0.00490   0.37473   0.00000  Uiso   1.00
H307   H     0.83470   0.02130   0.38200   0.00000  Uiso   1.00
C308   C     0.76030   0.94060   0.36618   0.00000  Uiso   1.00
C309   C     0.69952   0.91772   0.35524   0.00000  Uiso   1.00
H310   H     0.67680   0.87350   0.34950   0.00000  Uiso   1.00
C311   C     0.79190   0.89841   0.36922   0.00000  Uiso   1.00
C312   C     0.82560   0.75200   0.40890   0.00000  Uiso   1.00
C313   C     0.92280   0.81460   0.43250   0.00000  Uiso   1.00
H314   H     0.94470   0.80640   0.44520   0.00000  Uiso   1.00
H315   H     0.91010   0.84770   0.43680   0.00000  Uiso   1.00
H316   H     0.95360   0.83140   0.41980   0.00000  Uiso   1.00
C317   C     0.84540   0.68370   0.43960   0.00000  Uiso   1.00
H318   H     0.80090   0.64770   0.43540   0.00000  Uiso   1.00
H319   H     0.84630   0.69170   0.45570   0.00000  Uiso   1.00
H320   H     0.87870   0.67080   0.43590   0.00000  Uiso   1.00
Zn321  Zn    0.47334   0.12314   0.69971   0.00000  Uiso   1.00
O322   O     0.49434   0.10574   0.65287   0.00000  Uiso   1.00
O323   O     0.55525   0.16173   0.68233   0.00000  Uiso   1.00
O324   O     0.51431   0.25601   0.71049   0.00000  Uiso   1.00
O325   O     0.42358   0.17094   0.69599   0.00000  Uiso   1.00
O326   O     0.96601   0.36087   0.69759   0.00000  Uiso   1.00
O327   O     0.01507   0.47063   0.69594   0.00000  Uiso   1.00
O328   O     0.94087   0.03773   0.53910   0.00000  Uiso   1.00
O329   O     0.97787   0.11503   0.51681   0.00000  Uiso   1.00
O330   O     0.51128   0.12648   0.73007   0.00000  Uiso   1.00
N331   N     0.34076   0.39552   0.69413   0.00000  Uiso   1.00
N332   N     0.26742   0.42701   0.69254   0.00000  Uiso   1.00
N333   N     0.78752   0.23010   0.61262   0.00000  Uiso   1.00
N334   N     0.85507   0.21999   0.59009   0.00000  Uiso   1.00
N335   N     0.52897   0.08473   0.75953   0.00000  Uiso   1.00
C336   C     0.54851   0.14275   0.66216   0.00000  Uiso   1.00
C337   C     0.61180   0.16904   0.64898   0.00000  Uiso   1.00
C338   C     0.60883   0.14524   0.62738   0.00000  Uiso   1.00
H339   H     0.56697   0.11433   0.62103   0.00000  Uiso   1.00
C340   C     0.66667   0.16673   0.61536   0.00000  Uiso   1.00
H341   H     0.66517   0.15093   0.60063   0.00000  Uiso   1.00
C342   C     0.72732   0.21171   0.62505   0.00000  Uiso   1.00
C343   C     0.73166   0.23678   0.64570   0.00000  Uiso   1.00
H344   H     0.77377   0.26883   0.65173   0.00000  Uiso   1.00
C345   C     0.67284   0.21470   0.65813   0.00000  Uiso   1.00
H346   H     0.67487   0.23103   0.67283   0.00000  Uiso   1.00
C347   C     0.84387   0.29143   0.61081   0.00000  Uiso   1.00
H348   H     0.85147   0.33093   0.61823   0.00000  Uiso   1.00
C349   C     0.88617   0.28683   0.59697   0.00000  Uiso   1.00
H350   H     0.92897   0.32183   0.59263   0.00000  Uiso   1.00
C351   C     0.79547   0.18773   0.59995   0.00000  Uiso   1.00
H352   H     0.76377   0.14173   0.59813   0.00000  Uiso   1.00
C353   C     0.87947   0.18803   0.57588   0.00000  Uiso   1.00
C354   C     0.86157   0.12443   0.57937   0.00000  Uiso   1.00
H355   H     0.83277   0.10053   0.59143   0.00000  Uiso   1.00
C356   C     0.88557   0.09343   0.56522   0.00000  Uiso   1.00
H357   H     0.87177   0.04773   0.56763   0.00000  Uiso   1.00
C358   C     0.92497   0.12363   0.54926   0.00000  Uiso   1.00
C359   C     0.94197   0.19043   0.54373   0.00000  Uiso   1.00
H360   H     0.96557   0.21143   0.53043   0.00000  Uiso   1.00
C361   C     0.92207   0.22313   0.55880   0.00000  Uiso   1.00
H362   H     0.93797   0.26963   0.55723   0.00000  Uiso   1.00
C363   C     0.94687   0.08693   0.53453   0.00000  Uiso   1.00
C364   C     0.01731   0.41929   0.69628   0.00000  Uiso   1.00
C365   C     0.08265   0.42028   0.69489   0.00000  Uiso   1.00
C366   C     0.14216   0.48077   0.69607   0.00000  Uiso   1.00
H367   H     0.14107   0.52113   0.69753   0.00000  Uiso   1.00
C368   C     0.20293   0.48293   0.69516   0.00000  Uiso   1.00
H369   H     0.24347   0.52453   0.69583   0.00000  Uiso   1.00
C370   C     0.20432   0.42450   0.69320   0.00000  Uiso   1.00
C371   C     0.14578   0.36423   0.69072   0.00000  Uiso   1.00
H372   H     0.14717   0.32443   0.68803   0.00000  Uiso   1.00
C373   C     0.08509   0.36215   0.69220   0.00000  Uiso   1.00
H374   H     0.04477   0.32043   0.69133   0.00000  Uiso   1.00
C375   C     0.33009   0.48442   0.69347   0.00000  Uiso   1.00
H376   H     0.33887   0.52923   0.69353   0.00000  Uiso   1.00
C377   C     0.37502   0.46502   0.69423   0.00000  Uiso   1.00
H378   H     0.42217   0.49343   0.69473   0.00000  Uiso   1.00
C379   C     0.27604   0.37379   0.69247   0.00000  Uiso   1.00
H380   H     0.24157   0.32833   0.69143   0.00000  Uiso   1.00
C381   C     0.37060   0.35398   0.69535   0.00000  Uiso   1.00
C382   C     0.33855   0.29092   0.68595   0.00000  Uiso   1.00
H383   H     0.29817   0.27563   0.67783   0.00000  Uiso   1.00
C384   C     0.43133   0.37876   0.70600   0.00000  Uiso   1.00
H385   H     0.45357   0.42293   0.71183   0.00000  Uiso   1.00
C386   C     0.45957   0.33823   0.70806   0.00000  Uiso   1.00
H387   H     0.50137   0.35463   0.71533   0.00000  Uiso   1.00
C388   C     0.42697   0.27393   0.69951   0.00000  Uiso   1.00
C389   C     0.36619   0.25105   0.68857   0.00000  Uiso   1.00
H390   H     0.34347   0.20683   0.68283   0.00000  Uiso   1.00
C391   C     0.45857   0.23174   0.70255   0.00000  Uiso   1.00
C392   C     0.49227   0.08533   0.74223   0.00000  Uiso   1.00
C393   C     0.58947   0.14793   0.76583   0.00000  Uiso   1.00
H394   H     0.61137   0.13973   0.77853   0.00000  Uiso   1.00
H395   H     0.57677   0.18103   0.77013   0.00000  Uiso   1.00
H396   H     0.62027   0.16473   0.75313   0.00000  Uiso   1.00
C397   C     0.51207   0.01703   0.77293   0.00000  Uiso   1.00
H398   H     0.46757   0.98103   0.76873   0.00000  Uiso   1.00
H399   H     0.51297   0.02503   0.78903   0.00000  Uiso   1.00
H400   H     0.54537   0.00413   0.76923   0.00000  Uiso   1.00
Zn401  Zn    0.14001   0.45647   1.03304   0.00000  Uiso   1.00
O402   O     0.16100   0.43908   0.98621   0.00000  Uiso   1.00
O403   O     0.22191   0.49507   1.01567   0.00000  Uiso   1.00
O404   O     0.18097   0.58935   1.04383   0.00000  Uiso   1.00
O405   O     0.09024   0.50428   1.02933   0.00000  Uiso   1.00
O406   O     0.63267   0.69421   1.03093   0.00000  Uiso   1.00
O407   O     0.68173   0.80397   1.02928   0.00000  Uiso   1.00
O408   O     0.60753   0.37107   0.87244   0.00000  Uiso   1.00
O409   O     0.64453   0.44837   0.85015   0.00000  Uiso   1.00
O410   O     0.17794   0.45982   1.06341   0.00000  Uiso   1.00
N411   N     0.00742   0.72886   1.02747   0.00000  Uiso   1.00
N412   N     0.93408   0.76035   1.02588   0.00000  Uiso   1.00
N413   N     0.45418   0.56344   0.94596   0.00000  Uiso   1.00
N414   N     0.52173   0.55333   0.92343   0.00000  Uiso   1.00
N415   N     0.19563   0.41807   1.09287   0.00000  Uiso   1.00
C416   C     0.21517   0.47609   0.99550   0.00000  Uiso   1.00
C417   C     0.27846   0.50238   0.98232   0.00000  Uiso   1.00
C418   C     0.27549   0.47858   0.96072   0.00000  Uiso   1.00
H419   H     0.23363   0.44767   0.95437   0.00000  Uiso   1.00
C420   C     0.33333   0.50007   0.94870   0.00000  Uiso   1.00
H421   H     0.33183   0.48427   0.93397   0.00000  Uiso   1.00
C422   C     0.39398   0.54505   0.95839   0.00000  Uiso   1.00
C423   C     0.39832   0.57012   0.97904   0.00000  Uiso   1.00
H424   H     0.44043   0.60217   0.98507   0.00000  Uiso   1.00
C425   C     0.33950   0.54804   0.99147   0.00000  Uiso   1.00
H426   H     0.34153   0.56437   1.00617   0.00000  Uiso   1.00
C427   C     0.51053   0.62477   0.94415   0.00000  Uiso   1.00
H428   H     0.51813   0.66427   0.95157   0.00000  Uiso   1.00
C429   C     0.55283   0.62017   0.93031   0.00000  Uiso   1.00
H430   H     0.59563   0.65517   0.92597   0.00000  Uiso   1.00
C431   C     0.46213   0.52107   0.93329   0.00000  Uiso   1.00
H432   H     0.43043   0.47507   0.93147   0.00000  Uiso   1.00
C433   C     0.54613   0.52137   0.90922   0.00000  Uiso   1.00
C434   C     0.52823   0.45777   0.91271   0.00000  Uiso   1.00
H435   H     0.49943   0.43387   0.92477   0.00000  Uiso   1.00
C436   C     0.55223   0.42677   0.89856   0.00000  Uiso   1.00
H437   H     0.53843   0.38107   0.90097   0.00000  Uiso   1.00
C438   C     0.59163   0.45697   0.88260   0.00000  Uiso   1.00
C439   C     0.60863   0.52377   0.87707   0.00000  Uiso   1.00
H440   H     0.63223   0.54477   0.86377   0.00000  Uiso   1.00
C441   C     0.58873   0.55647   0.89214   0.00000  Uiso   1.00
H442   H     0.60463   0.60297   0.89057   0.00000  Uiso   1.00
C443   C     0.61353   0.42027   0.86787   0.00000  Uiso   1.00
C444   C     0.68397   0.75263   1.02962   0.00000  Uiso   1.00
C445   C     0.74931   0.75362   1.02823   0.00000  Uiso   1.00
C446   C     0.80882   0.81411   1.02941   0.00000  Uiso   1.00
H447   H     0.80773   0.85447   1.03087   0.00000  Uiso   1.00
C448   C     0.86959   0.81627   1.02850   0.00000  Uiso   1.00
H449   H     0.91013   0.85787   1.02917   0.00000  Uiso   1.00
C450   C     0.87098   0.75784   1.02654   0.00000  Uiso   1.00
C451   C     0.81244   0.69757   1.02406   0.00000  Uiso   1.00
H452   H     0.81383   0.65777   1.02137   0.00000  Uiso   1.00
C453   C     0.75175   0.69549   1.02554   0.00000  Uiso   1.00
H454   H     0.71143   0.65377   1.02467   0.00000  Uiso   1.00
C455   C     0.99675   0.81776   1.02681   0.00000  Uiso   1.00
H456   H     0.00553   0.86257   1.02687   0.00000  Uiso   1.00
C457   C     0.04168   0.79836   1.02757   0.00000  Uiso   1.00
H458   H     0.08883   0.82677   1.02807   0.00000  Uiso   1.00
C459   C     0.94270   0.70713   1.02581   0.00000  Uiso   1.00
H460   H     0.90823   0.66167   1.02477   0.00000  Uiso   1.00
C461   C     0.03726   0.68732   1.02869   0.00000  Uiso   1.00
C462   C     0.00521   0.62426   1.01929   0.00000  Uiso   1.00
H463   H     0.96483   0.60897   1.01117   0.00000  Uiso   1.00
C464   C     0.09799   0.71210   1.03934   0.00000  Uiso   1.00
H465   H     0.12023   0.75627   1.04517   0.00000  Uiso   1.00
C466   C     0.12623   0.67157   1.04140   0.00000  Uiso   1.00
H467   H     0.16803   0.68797   1.04867   0.00000  Uiso   1.00
C468   C     0.09363   0.60727   1.03285   0.00000  Uiso   1.00
C469   C     0.03285   0.58439   1.02191   0.00000  Uiso   1.00
H470   H     0.01013   0.54017   1.01617   0.00000  Uiso   1.00
C471   C     0.12523   0.56508   1.03589   0.00000  Uiso   1.00
C472   C     0.15893   0.41867   1.07557   0.00000  Uiso   1.00
C473   C     0.25613   0.48127   1.09917   0.00000  Uiso   1.00
H474   H     0.27803   0.47307   1.11187   0.00000  Uiso   1.00
H475   H     0.24343   0.51437   1.10347   0.00000  Uiso   1.00
H476   H     0.28693   0.49807   1.08647   0.00000  Uiso   1.00
C477   C     0.17873   0.35037   1.10627   0.00000  Uiso   1.00
H478   H     0.13423   0.31437   1.10207   0.00000  Uiso   1.00
H479   H     0.17963   0.35837   1.12237   0.00000  Uiso   1.00
H480   H     0.21203   0.33747   1.10257   0.00000  Uiso   1.00
Zn481  Zn    0.21019   0.01687   0.36638   0.00000  Uiso   1.00
O482   O     0.22759   0.05526   0.31954   0.00000  Uiso   1.00
O483   O     0.17160   0.06018   0.34900   0.00000  Uiso   1.00
O484   O     0.07732   0.92496   0.37716   0.00000  Uiso   1.00
O485   O     0.16239   0.91930   0.36266   0.00000  Uiso   1.00
O486   O     0.97246   0.27180   0.36426   0.00000  Uiso   1.00
O487   O     0.86270   0.21110   0.36261   0.00000  Uiso   1.00
O488   O     0.29560   0.56980   0.20577   0.00000  Uiso   1.00
O489   O     0.21830   0.52950   0.18348   0.00000  Uiso   1.00
O490   O     0.20685   0.05146   0.39674   0.00000  Uiso   1.00
N491   N     0.93781   0.61190   0.36080   0.00000  Uiso   1.00
N492   N     0.90632   0.50707   0.35921   0.00000  Uiso   1.00
N493   N     0.10323   0.22408   0.27929   0.00000  Uiso   1.00
N494   N     0.11334   0.30174   0.25676   0.00000  Uiso   1.00
N495   N     0.24860   0.11090   0.42620   0.00000  Uiso   1.00
C496   C     0.19058   0.07242   0.32883   0.00000  Uiso   1.00
C497   C     0.16429   0.10942   0.31565   0.00000  Uiso   1.00
C498   C     0.18809   0.13025   0.29405   0.00000  Uiso   1.00
H499   H     0.21900   0.11930   0.28770   0.00000  Uiso   1.00
C500   C     0.16660   0.16660   0.28203   0.00000  Uiso   1.00
H501   H     0.18240   0.18090   0.26730   0.00000  Uiso   1.00
C502   C     0.12162   0.18227   0.29172   0.00000  Uiso   1.00
C503   C     0.09655   0.16154   0.31237   0.00000  Uiso   1.00
H504   H     0.06450   0.17160   0.31840   0.00000  Uiso   1.00
C505   C     0.11863   0.12480   0.32480   0.00000  Uiso   1.00
H506   H     0.10230   0.11050   0.33950   0.00000  Uiso   1.00
C507   C     0.04190   0.21910   0.27748   0.00000  Uiso   1.00
H508   H     0.00240   0.18720   0.28490   0.00000  Uiso   1.00
C509   C     0.04650   0.26600   0.26364   0.00000  Uiso   1.00
H510   H     0.01150   0.27380   0.25930   0.00000  Uiso   1.00
C511   C     0.14560   0.27440   0.26662   0.00000  Uiso   1.00
H512   H     0.19160   0.28870   0.26480   0.00000  Uiso   1.00
C513   C     0.14530   0.35810   0.24255   0.00000  Uiso   1.00
C514   C     0.20890   0.40380   0.24604   0.00000  Uiso   1.00
H515   H     0.23280   0.39890   0.25810   0.00000  Uiso   1.00
C516   C     0.23990   0.45880   0.23189   0.00000  Uiso   1.00
H517   H     0.28560   0.49070   0.23430   0.00000  Uiso   1.00
C518   C     0.20970   0.46800   0.21593   0.00000  Uiso   1.00
C519   C     0.14290   0.41820   0.21040   0.00000  Uiso   1.00
H520   H     0.12190   0.42080   0.19710   0.00000  Uiso   1.00
C521   C     0.11020   0.36560   0.22547   0.00000  Uiso   1.00
H522   H     0.06370   0.33500   0.22390   0.00000  Uiso   1.00
C523   C     0.24640   0.52660   0.20120   0.00000  Uiso   1.00
C524   C     0.91404   0.26468   0.36295   0.00000  Uiso   1.00
C525   C     0.91305   0.32903   0.36156   0.00000  Uiso   1.00
C526   C     0.85256   0.32805   0.36274   0.00000  Uiso   1.00
H527   H     0.81220   0.28660   0.36420   0.00000  Uiso   1.00
C528   C     0.85040   0.38666   0.36183   0.00000  Uiso   1.00
H529   H     0.80880   0.38560   0.36250   0.00000  Uiso   1.00
C530   C     0.90883   0.44648   0.35987   0.00000  Uiso   1.00
C531   C     0.96910   0.44821   0.35739   0.00000  Uiso   1.00
H532   H     0.00890   0.48940   0.35470   0.00000  Uiso   1.00
C533   C     0.97118   0.38960   0.35887   0.00000  Uiso   1.00
H534   H     0.01290   0.39100   0.35800   0.00000  Uiso   1.00
C535   C     0.84891   0.51233   0.36014   0.00000  Uiso   1.00
H536   H     0.80410   0.47630   0.36020   0.00000  Uiso   1.00
C537   C     0.86831   0.57666   0.36090   0.00000  Uiso   1.00
H538   H     0.83990   0.59540   0.36140   0.00000  Uiso   1.00
C539   C     0.95954   0.56891   0.35914   0.00000  Uiso   1.00
H540   H     0.00500   0.57990   0.35810   0.00000  Uiso   1.00
C541   C     0.97935   0.68328   0.36202   0.00000  Uiso   1.00
C542   C     0.04241   0.71429   0.35262   0.00000  Uiso   1.00
H543   H     0.05770   0.68920   0.34450   0.00000  Uiso   1.00
C544   C     0.95457   0.71923   0.37267   0.00000  Uiso   1.00
H545   H     0.91040   0.69730   0.37850   0.00000  Uiso   1.00
C546   C     0.99510   0.78800   0.37473   0.00000  Uiso   1.00
H547   H     0.97870   0.81340   0.38200   0.00000  Uiso   1.00
C548   C     0.05940   0.81970   0.36618   0.00000  Uiso   1.00
C549   C     0.08228   0.78180   0.35524   0.00000  Uiso   1.00
H550   H     0.12650   0.80330   0.34950   0.00000  Uiso   1.00
C551   C     0.10159   0.89349   0.36922   0.00000  Uiso   1.00
C552   C     0.24800   0.07360   0.40890   0.00000  Uiso   1.00
C553   C     0.18540   0.10820   0.43250   0.00000  Uiso   1.00
H554   H     0.19360   0.13830   0.44520   0.00000  Uiso   1.00
H555   H     0.15230   0.06240   0.43680   0.00000  Uiso   1.00
H556   H     0.16860   0.12220   0.41980   0.00000  Uiso   1.00
C557   C     0.31630   0.16170   0.43960   0.00000  Uiso   1.00
H558   H     0.35230   0.15320   0.43540   0.00000  Uiso   1.00
H559   H     0.30830   0.15460   0.45570   0.00000  Uiso   1.00
H560   H     0.32920   0.20790   0.43590   0.00000  Uiso   1.00
Zn561  Zn    0.87686   0.35020   0.69971   0.00000  Uiso   1.00
O562   O     0.89426   0.38859   0.65287   0.00000  Uiso   1.00
O563   O     0.83827   0.39351   0.68233   0.00000  Uiso   1.00
O564   O     0.74399   0.25829   0.71049   0.00000  Uiso   1.00
O565   O     0.82906   0.25263   0.69599   0.00000  Uiso   1.00
O566   O     0.63913   0.60513   0.69759   0.00000  Uiso   1.00
O567   O     0.52937   0.54443   0.69594   0.00000  Uiso   1.00
O568   O     0.96227   0.90313   0.53910   0.00000  Uiso   1.00
O569   O     0.88497   0.86283   0.51681   0.00000  Uiso   1.00
O570   O     0.87352   0.38479   0.73007   0.00000  Uiso   1.00
N571   N     0.60448   0.94523   0.69413   0.00000  Uiso   1.00
N572   N     0.57299   0.84040   0.69254   0.00000  Uiso   1.00
N573   N     0.76990   0.55741   0.61262   0.00000  Uiso   1.00
N574   N     0.78001   0.63507   0.59009   0.00000  Uiso   1.00
N575   N     0.91527   0.44423   0.75953   0.00000  Uiso   1.00
C576   C     0.85725   0.40575   0.66216   0.00000  Uiso   1.00
C577   C     0.83096   0.44275   0.64898   0.00000  Uiso   1.00
C578   C     0.85476   0.46358   0.62738   0.00000  Uiso   1.00
H579   H     0.88567   0.45263   0.62103   0.00000  Uiso   1.00
C580   C     0.83327   0.49993   0.61536   0.00000  Uiso   1.00
H581   H     0.84907   0.51423   0.60063   0.00000  Uiso   1.00
C582   C     0.78829   0.51560   0.62505   0.00000  Uiso   1.00
C583   C     0.76322   0.49487   0.64570   0.00000  Uiso   1.00
H584   H     0.73117   0.50493   0.65173   0.00000  Uiso   1.00
C585   C     0.78530   0.45813   0.65813   0.00000  Uiso   1.00
H586   H     0.76897   0.44383   0.67283   0.00000  Uiso   1.00
C587   C     0.70857   0.55243   0.61081   0.00000  Uiso   1.00
H588   H     0.66907   0.52053   0.61823   0.00000  Uiso   1.00
C589   C     0.71317   0.59933   0.59697   0.00000  Uiso   1.00
H590   H     0.67817   0.60713   0.59263   0.00000  Uiso   1.00
C591   C     0.81227   0.60773   0.59995   0.00000  Uiso   1.00
H592   H     0.85827   0.62203   0.59813   0.00000  Uiso   1.00
C593   C     0.81197   0.69143   0.57588   0.00000  Uiso   1.00
C594   C     0.87557   0.73713   0.57937   0.00000  Uiso   1.00
H595   H     0.89947   0.73223   0.59143   0.00000  Uiso   1.00
C596   C     0.90657   0.79213   0.56522   0.00000  Uiso   1.00
H597   H     0.95227   0.82403   0.56763   0.00000  Uiso   1.00
C598   C     0.87637   0.80133   0.54926   0.00000  Uiso   1.00
C599   C     0.80957   0.75153   0.54373   0.00000  Uiso   1.00
H600   H     0.78857   0.75413   0.53043   0.00000  Uiso   1.00
C601   C     0.77687   0.69893   0.55880   0.00000  Uiso   1.00
H602   H     0.73037   0.66833   0.55723   0.00000  Uiso   1.00
C603   C     0.91307   0.85993   0.53453   0.00000  Uiso   1.00
C604   C     0.58071   0.59801   0.69628   0.00000  Uiso   1.00
C605   C     0.57972   0.66236   0.69489   0.00000  Uiso   1.00
C606   C     0.51923   0.66138   0.69607   0.00000  Uiso   1.00
H607   H     0.47887   0.61993   0.69753   0.00000  Uiso   1.00
C608   C     0.51707   0.71999   0.69516   0.00000  Uiso   1.00
H609   H     0.47547   0.71893   0.69583   0.00000  Uiso   1.00
C610   C     0.57550   0.77981   0.69320   0.00000  Uiso   1.00
C611   C     0.63577   0.78154   0.69072   0.00000  Uiso   1.00
H612   H     0.67557   0.82273   0.68803   0.00000  Uiso   1.00
C613   C     0.63785   0.72293   0.69220   0.00000  Uiso   1.00
H614   H     0.67957   0.72433   0.69133   0.00000  Uiso   1.00
C615   C     0.51558   0.84566   0.69347   0.00000  Uiso   1.00
H616   H     0.47077   0.80963   0.69353   0.00000  Uiso   1.00
C617   C     0.53498   0.90999   0.69423   0.00000  Uiso   1.00
H618   H     0.50657   0.92873   0.69473   0.00000  Uiso   1.00
C619   C     0.62621   0.90224   0.69247   0.00000  Uiso   1.00
H620   H     0.67167   0.91323   0.69143   0.00000  Uiso   1.00
C621   C     0.64602   0.01661   0.69535   0.00000  Uiso   1.00
C622   C     0.70908   0.04762   0.68595   0.00000  Uiso   1.00
H623   H     0.72437   0.02253   0.67783   0.00000  Uiso   1.00
C624   C     0.62124   0.05256   0.70600   0.00000  Uiso   1.00
H625   H     0.57707   0.03063   0.71183   0.00000  Uiso   1.00
C626   C     0.66177   0.12133   0.70806   0.00000  Uiso   1.00
H627   H     0.64537   0.14673   0.71533   0.00000  Uiso   1.00
C628   C     0.72607   0.15303   0.69951   0.00000  Uiso   1.00
C629   C     0.74895   0.11513   0.68857   0.00000  Uiso   1.00
H630   H     0.79317   0.13663   0.68283   0.00000  Uiso   1.00
C631   C     0.76826   0.22682   0.70255   0.00000  Uiso   1.00
C632   C     0.91467   0.40693   0.74223   0.00000  Uiso   1.00
C633   C     0.85207   0.44153   0.76583   0.00000  Uiso   1.00
H634   H     0.86027   0.47163   0.77853   0.00000  Uiso   1.00
H635   H     0.81897   0.39573   0.77013   0.00000  Uiso   1.00
H636   H     0.83527   0.45553   0.75313   0.00000  Uiso   1.00
C637   C     0.98297   0.49503   0.77293   0.00000  Uiso   1.00
H638   H     0.01897   0.48653   0.76873   0.00000  Uiso   1.00
H639   H     0.97497   0.48793   0.78903   0.00000  Uiso   1.00
H640   H     0.99587   0.54123   0.76923   0.00000  Uiso   1.00
Zn641  Zn    0.54353   0.68353   1.03304   0.00000  Uiso   1.00
O642   O     0.56092   0.72193   0.98621   0.00000  Uiso   1.00
O643   O     0.50493   0.72685   1.01567   0.00000  Uiso   1.00
O644   O     0.41065   0.59163   1.04383   0.00000  Uiso   1.00
O645   O     0.49572   0.58597   1.02933   0.00000  Uiso   1.00
O646   O     0.30579   0.93847   1.03093   0.00000  Uiso   1.00
O647   O     0.19603   0.87777   1.02928   0.00000  Uiso   1.00
O648   O     0.62893   0.23647   0.87244   0.00000  Uiso   1.00
O649   O     0.55163   0.19617   0.85015   0.00000  Uiso   1.00
O650   O     0.54018   0.71813   1.06341   0.00000  Uiso   1.00
N651   N     0.27114   0.27857   1.02747   0.00000  Uiso   1.00
N652   N     0.23965   0.17374   1.02588   0.00000  Uiso   1.00
N653   N     0.43656   0.89075   0.94596   0.00000  Uiso   1.00
N654   N     0.44667   0.96841   0.92343   0.00000  Uiso   1.00
N655   N     0.58193   0.77757   1.09287   0.00000  Uiso   1.00
C656   C     0.52391   0.73909   0.99550   0.00000  Uiso   1.00
C657   C     0.49762   0.77609   0.98232   0.00000  Uiso   1.00
C658   C     0.52142   0.79692   0.96072   0.00000  Uiso   1.00
H659   H     0.55233   0.78597   0.95437   0.00000  Uiso   1.00
C660   C     0.49993   0.83327   0.94870   0.00000  Uiso   1.00
H661   H     0.51573   0.84757   0.93397   0.00000  Uiso   1.00
C662   C     0.45495   0.84894   0.95839   0.00000  Uiso   1.00
C663   C     0.42988   0.82821   0.97904   0.00000  Uiso   1.00
H664   H     0.39783   0.83827   0.98507   0.00000  Uiso   1.00
C665   C     0.45196   0.79147   0.99147   0.00000  Uiso   1.00
H666   H     0.43563   0.77717   1.00617   0.00000  Uiso   1.00
C667   C     0.37523   0.88577   0.94415   0.00000  Uiso   1.00
H668   H     0.33573   0.85387   0.95157   0.00000  Uiso   1.00
C669   C     0.37983   0.93267   0.93031   0.00000  Uiso   1.00
H670   H     0.34483   0.94047   0.92597   0.00000  Uiso   1.00
C671   C     0.47893   0.94107   0.93329   0.00000  Uiso   1.00
H672   H     0.52493   0.95537   0.93147   0.00000  Uiso   1.00
C673   C     0.47863   0.02477   0.90922   0.00000  Uiso   1.00
C674   C     0.54223   0.07047   0.91271   0.00000  Uiso   1.00
H675   H     0.56613   0.06557   0.92477   0.00000  Uiso   1.00
C676   C     0.57323   0.12547   0.89856   0.00000  Uiso   1.00
H677   H     0.61893   0.15737   0.90097   0.00000  Uiso   1.00
C678   C     0.54303   0.13467   0.88260   0.00000  Uiso   1.00
C679   C     0.47623   0.08487   0.87707   0.00000  Uiso   1.00
H680   H     0.45523   0.08747   0.86377   0.00000  Uiso   1.00
C681   C     0.44353   0.03227   0.89214   0.00000  Uiso   1.00
H682   H     0.39703   0.00167   0.89057   0.00000  Uiso   1.00
C683   C     0.57973   0.19327   0.86787   0.00000  Uiso   1.00
C684   C     0.24737   0.93135   1.02962   0.00000  Uiso   1.00
C685   C     0.24638   0.99570   1.02823   0.00000  Uiso   1.00
C686   C     0.18589   0.99472   1.02941   0.00000  Uiso   1.00
H687   H     0.14553   0.95327   1.03087   0.00000  Uiso   1.00
C688   C     0.18373   0.05333   1.02850   0.00000  Uiso   1.00
H689   H     0.14213   0.05227   1.02917   0.00000  Uiso   1.00
C690   C     0.24216   0.11315   1.02654   0.00000  Uiso   1.00
C691   C     0.30243   0.11488   1.02406   0.00000  Uiso   1.00
H692   H     0.34223   0.15607   1.02137   0.00000  Uiso   1.00
C693   C     0.30451   0.05627   1.02554   0.00000  Uiso   1.00
H694   H     0.34623   0.05767   1.02467   0.00000  Uiso   1.00
C695   C     0.18224   0.17900   1.02681   0.00000  Uiso   1.00
H696   H     0.13743   0.14297   1.02687   0.00000  Uiso   1.00
C697   C     0.20164   0.24333   1.02757   0.00000  Uiso   1.00
H698   H     0.17323   0.26207   1.02807   0.00000  Uiso   1.00
C699   C     0.29287   0.23558   1.02581   0.00000  Uiso   1.00
H700   H     0.33833   0.24657   1.02477   0.00000  Uiso   1.00
C701   C     0.31268   0.34995   1.02869   0.00000  Uiso   1.00
C702   C     0.37574   0.38096   1.01929   0.00000  Uiso   1.00
H703   H     0.39103   0.35587   1.01117   0.00000  Uiso   1.00
C704   C     0.28790   0.38590   1.03934   0.00000  Uiso   1.00
H705   H     0.24373   0.36397   1.04517   0.00000  Uiso   1.00
C706   C     0.32843   0.45467   1.04140   0.00000  Uiso   1.00
H707   H     0.31203   0.48007   1.04867   0.00000  Uiso   1.00
C708   C     0.39273   0.48637   1.03285   0.00000  Uiso   1.00
C709   C     0.41561   0.44847   1.02191   0.00000  Uiso   1.00
H710   H     0.45983   0.46997   1.01617   0.00000  Uiso   1.00
C711   C     0.43492   0.56016   1.03589   0.00000  Uiso   1.00
C712   C     0.58133   0.74027   1.07557   0.00000  Uiso   1.00
C713   C     0.51873   0.77487   1.09917   0.00000  Uiso   1.00
H714   H     0.52693   0.80497   1.11187   0.00000  Uiso   1.00
H715   H     0.48563   0.72907   1.10347   0.00000  Uiso   1.00
H716   H     0.50193   0.78887   1.08647   0.00000  Uiso   1.00
C717   C     0.64963   0.82837   1.10627   0.00000  Uiso   1.00
H718   H     0.68563   0.81987   1.10207   0.00000  Uiso   1.00
H719   H     0.64163   0.82127   1.12237   0.00000  Uiso   1.00
H720   H     0.66253   0.87457   1.10257   0.00000  Uiso   1.00
Zn721  Zn    0.01687   0.80668   0.63363   0.00000  Uiso   1.00
O722   O     0.05526   0.82767   0.68046   0.00000  Uiso   1.00
O723   O     0.06018   0.88858   0.65100   0.00000  Uiso   1.00
O724   O     0.92496   0.84764   0.62284   0.00000  Uiso   1.00
O725   O     0.91930   0.75691   0.63734   0.00000  Uiso   1.00
O726   O     0.27180   0.29934   0.63574   0.00000  Uiso   1.00
O727   O     0.21110   0.34840   0.63739   0.00000  Uiso   1.00
O728   O     0.56980   0.27420   0.79423   0.00000  Uiso   1.00
O729   O     0.52950   0.31120   0.81652   0.00000  Uiso   1.00
O730   O     0.05146   0.84461   0.60326   0.00000  Uiso   1.00
N731   N     0.61190   0.67409   0.63920   0.00000  Uiso   1.00
N732   N     0.50707   0.60075   0.64079   0.00000  Uiso   1.00
N733   N     0.22408   0.12085   0.72071   0.00000  Uiso   1.00
N734   N     0.30174   0.18840   0.74324   0.00000  Uiso   1.00
N735   N     0.11090   0.86230   0.57380   0.00000  Uiso   1.00
C736   C     0.07242   0.88184   0.67117   0.00000  Uiso   1.00
C737   C     0.10942   0.94513   0.68435   0.00000  Uiso   1.00
C738   C     0.13025   0.94216   0.70595   0.00000  Uiso   1.00
H739   H     0.11930   0.90030   0.71230   0.00000  Uiso   1.00
C740   C     0.16660   0.00000   0.71797   0.00000  Uiso   1.00
H741   H     0.18090   0.99850   0.73270   0.00000  Uiso   1.00
C742   C     0.18227   0.06065   0.70828   0.00000  Uiso   1.00
C743   C     0.16154   0.06499   0.68763   0.00000  Uiso   1.00
H744   H     0.17160   0.10710   0.68160   0.00000  Uiso   1.00
C745   C     0.12480   0.00617   0.67520   0.00000  Uiso   1.00
H746   H     0.11050   0.00820   0.66050   0.00000  Uiso   1.00
C747   C     0.21910   0.17720   0.72252   0.00000  Uiso   1.00
H748   H     0.18720   0.18480   0.71510   0.00000  Uiso   1.00
C749   C     0.26600   0.21950   0.73636   0.00000  Uiso   1.00
H750   H     0.27380   0.26230   0.74070   0.00000  Uiso   1.00
C751   C     0.27440   0.12880   0.73338   0.00000  Uiso   1.00
H752   H     0.28870   0.09710   0.73520   0.00000  Uiso   1.00
C753   C     0.35810   0.21280   0.75745   0.00000  Uiso   1.00
C754   C     0.40380   0.19490   0.75396   0.00000  Uiso   1.00
H755   H     0.39890   0.16610   0.74190   0.00000  Uiso   1.00
C756   C     0.45880   0.21890   0.76811   0.00000  Uiso   1.00
H757   H     0.49070   0.20510   0.76570   0.00000  Uiso   1.00
C758   C     0.46800   0.25830   0.78407   0.00000  Uiso   1.00
C759   C     0.41820   0.27530   0.78960   0.00000  Uiso   1.00
H760   H     0.42080   0.29890   0.80290   0.00000  Uiso   1.00
C761   C     0.36560   0.25540   0.77453   0.00000  Uiso   1.00
H762   H     0.33500   0.27130   0.77610   0.00000  Uiso   1.00
C763   C     0.52660   0.28020   0.79880   0.00000  Uiso   1.00
C764   C     0.26468   0.35064   0.63705   0.00000  Uiso   1.00
C765   C     0.32903   0.41598   0.63844   0.00000  Uiso   1.00
C766   C     0.32805   0.47549   0.63726   0.00000  Uiso   1.00
H767   H     0.28660   0.47440   0.63580   0.00000  Uiso   1.00
C768   C     0.38666   0.53626   0.63817   0.00000  Uiso   1.00
H769   H     0.38560   0.57680   0.63750   0.00000  Uiso   1.00
C770   C     0.44648   0.53765   0.64013   0.00000  Uiso   1.00
C771   C     0.44821   0.47911   0.64261   0.00000  Uiso   1.00
H772   H     0.48940   0.48050   0.64530   0.00000  Uiso   1.00
C773   C     0.38960   0.41842   0.64113   0.00000  Uiso   1.00
H774   H     0.39100   0.37810   0.64200   0.00000  Uiso   1.00
C775   C     0.51233   0.66342   0.63986   0.00000  Uiso   1.00
H776   H     0.47630   0.67220   0.63980   0.00000  Uiso   1.00
C777   C     0.57666   0.70835   0.63910   0.00000  Uiso   1.00
H778   H     0.59540   0.75550   0.63860   0.00000  Uiso   1.00
C779   C     0.56891   0.60937   0.64086   0.00000  Uiso   1.00
H780   H     0.57990   0.57490   0.64190   0.00000  Uiso   1.00
C781   C     0.68328   0.70393   0.63798   0.00000  Uiso   1.00
C782   C     0.71429   0.67188   0.64738   0.00000  Uiso   1.00
H783   H     0.68920   0.63150   0.65550   0.00000  Uiso   1.00
C784   C     0.71923   0.76466   0.62733   0.00000  Uiso   1.00
H785   H     0.69730   0.78690   0.62150   0.00000  Uiso   1.00
C786   C     0.78800   0.79290   0.62527   0.00000  Uiso   1.00
H787   H     0.81340   0.83470   0.61800   0.00000  Uiso   1.00
C788   C     0.81970   0.76030   0.63382   0.00000  Uiso   1.00
C789   C     0.78180   0.69952   0.64476   0.00000  Uiso   1.00
H790   H     0.80330   0.67680   0.65050   0.00000  Uiso   1.00
C791   C     0.89349   0.79190   0.63078   0.00000  Uiso   1.00
C792   C     0.07360   0.82560   0.59110   0.00000  Uiso   1.00
C793   C     0.10820   0.92280   0.56750   0.00000  Uiso   1.00
H794   H     0.13830   0.94470   0.55480   0.00000  Uiso   1.00
H795   H     0.06240   0.91010   0.56320   0.00000  Uiso   1.00
H796   H     0.12220   0.95360   0.58020   0.00000  Uiso   1.00
C797   C     0.16170   0.84540   0.56040   0.00000  Uiso   1.00
H798   H     0.15320   0.80090   0.56460   0.00000  Uiso   1.00
H799   H     0.15460   0.84630   0.54430   0.00000  Uiso   1.00
H800   H     0.20790   0.87870   0.56410   0.00000  Uiso   1.00
Zn801  Zn    0.68353   0.14001  -0.03304   0.00000  Uiso   1.00
O802   O     0.72193   0.16100   0.01379   0.00000  Uiso   1.00
O803   O     0.72685   0.22191  -0.01567   0.00000  Uiso   1.00
O804   O     0.59163   0.18097  -0.04383   0.00000  Uiso   1.00
O805   O     0.58597   0.09024  -0.02933   0.00000  Uiso   1.00
O806   O     0.93847   0.63267  -0.03093   0.00000  Uiso   1.00
O807   O     0.87777   0.68173  -0.02928   0.00000  Uiso   1.00
O808   O     0.23647   0.60753   0.12756   0.00000  Uiso   1.00
O809   O     0.19617   0.64453   0.14985   0.00000  Uiso   1.00
O810   O     0.71813   0.17794  -0.06341   0.00000  Uiso   1.00
N811   N     0.27857   0.00742  -0.02747   0.00000  Uiso   1.00
N812   N     0.17374   0.93408  -0.02588   0.00000  Uiso   1.00
N813   N     0.89075   0.45418   0.05404   0.00000  Uiso   1.00
N814   N     0.96841   0.52173   0.07657   0.00000  Uiso   1.00
N815   N     0.77757   0.19563  -0.09287   0.00000  Uiso   1.00
C816   C     0.73909   0.21517   0.00450   0.00000  Uiso   1.00
C817   C     0.77609   0.27846   0.01768   0.00000  Uiso   1.00
C818   C     0.79692   0.27549   0.03928   0.00000  Uiso   1.00
H819   H     0.78597   0.23363   0.04563   0.00000  Uiso   1.00
C820   C     0.83327   0.33333   0.05130   0.00000  Uiso   1.00
H821   H     0.84757   0.33183   0.06603   0.00000  Uiso   1.00
C822   C     0.84894   0.39398   0.04161   0.00000  Uiso   1.00
C823   C     0.82821   0.39832   0.02096   0.00000  Uiso   1.00
H824   H     0.83827   0.44043   0.01493   0.00000  Uiso   1.00
C825   C     0.79147   0.33950   0.00853   0.00000  Uiso   1.00
H826   H     0.77717   0.34153  -0.00617   0.00000  Uiso   1.00
C827   C     0.88577   0.51053   0.05585   0.00000  Uiso   1.00
H828   H     0.85387   0.51813   0.04843   0.00000  Uiso   1.00
C829   C     0.93267   0.55283   0.06969   0.00000  Uiso   1.00
H830   H     0.94047   0.59563   0.07403   0.00000  Uiso   1.00
C831   C     0.94107   0.46213   0.06671   0.00000  Uiso   1.00
H832   H     0.95537   0.43043   0.06853   0.00000  Uiso   1.00
C833   C     0.02477   0.54613   0.09078   0.00000  Uiso   1.00
C834   C     0.07047   0.52823   0.08729   0.00000  Uiso   1.00
H835   H     0.06557   0.49943   0.07523   0.00000  Uiso   1.00
C836   C     0.12547   0.55223   0.10144   0.00000  Uiso   1.00
H837   H     0.15737   0.53843   0.09903   0.00000  Uiso   1.00
C838   C     0.13467   0.59163   0.11740   0.00000  Uiso   1.00
C839   C     0.08487   0.60863   0.12293   0.00000  Uiso   1.00
H840   H     0.08747   0.63223   0.13623   0.00000  Uiso   1.00
C841   C     0.03227   0.58873   0.10786   0.00000  Uiso   1.00
H842   H     0.00167   0.60463   0.10943   0.00000  Uiso   1.00
C843   C     0.19327   0.61353   0.13213   0.00000  Uiso   1.00
C844   C     0.93135   0.68397  -0.02962   0.00000  Uiso   1.00
C845   C     0.99570   0.74931  -0.02823   0.00000  Uiso   1.00
C846   C     0.99472   0.80882  -0.02941   0.00000  Uiso   1.00
H847   H     0.95327   0.80773  -0.03087   0.00000  Uiso   1.00
C848   C     0.05333   0.86959  -0.02850   0.00000  Uiso   1.00
H849   H     0.05227   0.91013  -0.02917   0.00000  Uiso   1.00
C850   C     0.11315   0.87098  -0.02654   0.00000  Uiso   1.00
C851   C     0.11488   0.81244  -0.02406   0.00000  Uiso   1.00
H852   H     0.15607   0.81383  -0.02137   0.00000  Uiso   1.00
C853   C     0.05627   0.75175  -0.02554   0.00000  Uiso   1.00
H854   H     0.05767   0.71143  -0.02467   0.00000  Uiso   1.00
C855   C     0.17900   0.99675  -0.02681   0.00000  Uiso   1.00
H856   H     0.14297   0.00553  -0.02687   0.00000  Uiso   1.00
C857   C     0.24333   0.04168  -0.02757   0.00000  Uiso   1.00
H858   H     0.26207   0.08883  -0.02807   0.00000  Uiso   1.00
C859   C     0.23558   0.94270  -0.02581   0.00000  Uiso   1.00
H860   H     0.24657   0.90823  -0.02477   0.00000  Uiso   1.00
C861   C     0.34995   0.03726  -0.02869   0.00000  Uiso   1.00
C862   C     0.38096   0.00521  -0.01929   0.00000  Uiso   1.00
H863   H     0.35587   0.96483  -0.01117   0.00000  Uiso   1.00
C864   C     0.38590   0.09799  -0.03934   0.00000  Uiso   1.00
H865   H     0.36397   0.12023  -0.04517   0.00000  Uiso   1.00
C866   C     0.45467   0.12623  -0.04140   0.00000  Uiso   1.00
H867   H     0.48007   0.16803  -0.04867   0.00000  Uiso   1.00
C868   C     0.48637   0.09363  -0.03285   0.00000  Uiso   1.00
C869   C     0.44847   0.03285  -0.02191   0.00000  Uiso   1.00
H870   H     0.46997   0.01013  -0.01617   0.00000  Uiso   1.00
C871   C     0.56016   0.12523  -0.03589   0.00000  Uiso   1.00
C872   C     0.74027   0.15893  -0.07557   0.00000  Uiso   1.00
C873   C     0.77487   0.25613  -0.09917   0.00000  Uiso   1.00
H874   H     0.80497   0.27803  -0.11187   0.00000  Uiso   1.00
H875   H     0.72907   0.24343  -0.10347   0.00000  Uiso   1.00
H876   H     0.78887   0.28693  -0.08647   0.00000  Uiso   1.00
C877   C     0.82837   0.17873  -0.10627   0.00000  Uiso   1.00
H878   H     0.81987   0.13423  -0.10207   0.00000  Uiso   1.00
H879   H     0.82127   0.17963  -0.12237   0.00000  Uiso   1.00
H880   H     0.87457   0.21203  -0.10257   0.00000  Uiso   1.00
Zn881  Zn    0.35020   0.47334   0.30029   0.00000  Uiso   1.00
O882   O     0.38859   0.49434   0.34713   0.00000  Uiso   1.00
O883   O     0.39351   0.55525   0.31767   0.00000  Uiso   1.00
O884   O     0.25829   0.51431   0.28951   0.00000  Uiso   1.00
O885   O     0.25263   0.42358   0.30401   0.00000  Uiso   1.00
O886   O     0.60513   0.96601   0.30241   0.00000  Uiso   1.00
O887   O     0.54443   0.01507   0.30406   0.00000  Uiso   1.00
O888   O     0.90313   0.94087   0.46090   0.00000  Uiso   1.00
O889   O     0.86283   0.97787   0.48319   0.00000  Uiso   1.00
O890   O     0.38479   0.51128   0.26993   0.00000  Uiso   1.00
N891   N     0.94523   0.34076   0.30587   0.00000  Uiso   1.00
N892   N     0.84040   0.26742   0.30746   0.00000  Uiso   1.00
N893   N     0.55741   0.78752   0.38738   0.00000  Uiso   1.00
N894   N     0.63507   0.85507   0.40991   0.00000  Uiso   1.00
N895   N     0.44423   0.52897   0.24047   0.00000  Uiso   1.00
C896   C     0.40575   0.54851   0.33784   0.00000  Uiso   1.00
C897   C     0.44275   0.61180   0.35102   0.00000  Uiso   1.00
C898   C     0.46358   0.60883   0.37262   0.00000  Uiso   1.00
H899   H     0.45263   0.56697   0.37897   0.00000  Uiso   1.00
C900   C     0.49993   0.66667   0.38464   0.00000  Uiso   1.00
H901   H     0.51423   0.66517   0.39937   0.00000  Uiso   1.00
C902   C     0.51560   0.72732   0.37495   0.00000  Uiso   1.00
C903   C     0.49487   0.73166   0.35430   0.00000  Uiso   1.00
H904   H     0.50493   0.77377   0.34827   0.00000  Uiso   1.00
C905   C     0.45813   0.67284   0.34187   0.00000  Uiso   1.00
H906   H     0.44383   0.67487   0.32717   0.00000  Uiso   1.00
C907   C     0.55243   0.84387   0.38919   0.00000  Uiso   1.00
H908   H     0.52053   0.85147   0.38177   0.00000  Uiso   1.00
C909   C     0.59933   0.88617   0.40303   0.00000  Uiso   1.00
H910   H     0.60713   0.92897   0.40737   0.00000  Uiso   1.00
C911   C     0.60773   0.79547   0.40005   0.00000  Uiso   1.00
H912   H     0.62203   0.76377   0.40187   0.00000  Uiso   1.00
C913   C     0.69143   0.87947   0.42412   0.00000  Uiso   1.00
C914   C     0.73713   0.86157   0.42063   0.00000  Uiso   1.00
H915   H     0.73223   0.83277   0.40857   0.00000  Uiso   1.00
C916   C     0.79213   0.88557   0.43478   0.00000  Uiso   1.00
H917   H     0.82403   0.87177   0.43237   0.00000  Uiso   1.00
C918   C     0.80133   0.92497   0.45074   0.00000  Uiso   1.00
C919   C     0.75153   0.94197   0.45627   0.00000  Uiso   1.00
H920   H     0.75413   0.96557   0.46957   0.00000  Uiso   1.00
C921   C     0.69893   0.92207   0.44120   0.00000  Uiso   1.00
H922   H     0.66833   0.93797   0.44277   0.00000  Uiso   1.00
C923   C     0.85993   0.94687   0.46547   0.00000  Uiso   1.00
C924   C     0.59801   0.01731   0.30372   0.00000  Uiso   1.00
C925   C     0.66236   0.08265   0.30511   0.00000  Uiso   1.00
C926   C     0.66138   0.14216   0.30393   0.00000  Uiso   1.00
H927   H     0.61993   0.14107   0.30247   0.00000  Uiso   1.00
C928   C     0.71999   0.20293   0.30484   0.00000  Uiso   1.00
H929   H     0.71893   0.24347   0.30417   0.00000  Uiso   1.00
C930   C     0.77981   0.20432   0.30680   0.00000  Uiso   1.00
C931   C     0.78154   0.14578   0.30928   0.00000  Uiso   1.00
H932   H     0.82273   0.14717   0.31197   0.00000  Uiso   1.00
C933   C     0.72293   0.08509   0.30780   0.00000  Uiso   1.00
H934   H     0.72433   0.04477   0.30867   0.00000  Uiso   1.00
C935   C     0.84566   0.33009   0.30653   0.00000  Uiso   1.00
H936   H     0.80963   0.33887   0.30647   0.00000  Uiso   1.00
C937   C     0.90999   0.37502   0.30577   0.00000  Uiso   1.00
H938   H     0.92873   0.42217   0.30527   0.00000  Uiso   1.00
C939   C     0.90224   0.27604   0.30753   0.00000  Uiso   1.00
H940   H     0.91323   0.24157   0.30857   0.00000  Uiso   1.00
C941   C     0.01661   0.37060   0.30465   0.00000  Uiso   1.00
C942   C     0.04762   0.33855   0.31405   0.00000  Uiso   1.00
H943   H     0.02253   0.29817   0.32217   0.00000  Uiso   1.00
C944   C     0.05256   0.43133   0.29400   0.00000  Uiso   1.00
H945   H     0.03063   0.45357   0.28817   0.00000  Uiso   1.00
C946   C     0.12133   0.45957   0.29194   0.00000  Uiso   1.00
H947   H     0.14673   0.50137   0.28467   0.00000  Uiso   1.00
C948   C     0.15303   0.42697   0.30049   0.00000  Uiso   1.00
C949   C     0.11513   0.36619   0.31143   0.00000  Uiso   1.00
H950   H     0.13663   0.34347   0.31717   0.00000  Uiso   1.00
C951   C     0.22682   0.45857   0.29745   0.00000  Uiso   1.00
C952   C     0.40693   0.49227   0.25777   0.00000  Uiso   1.00
C953   C     0.44153   0.58947   0.23417   0.00000  Uiso   1.00
H954   H     0.47163   0.61137   0.22147   0.00000  Uiso   1.00
H955   H     0.39573   0.57677   0.22987   0.00000  Uiso   1.00
H956   H     0.45553   0.62027   0.24687   0.00000  Uiso   1.00
C957   C     0.49503   0.51207   0.22707   0.00000  Uiso   1.00
H958   H     0.48653   0.46757   0.23127   0.00000  Uiso   1.00
H959   H     0.48793   0.51297   0.21097   0.00000  Uiso   1.00
H960   H     0.54123   0.54537   0.23077   0.00000  Uiso   1.00
Zn961  Zn    0.19333   0.21019   0.63363   0.00000  Uiso   1.00
O962   O     0.17233   0.22759   0.68046   0.00000  Uiso   1.00
O963   O     0.11142   0.17160   0.65100   0.00000  Uiso   1.00
O964   O     0.15236   0.07732   0.62284   0.00000  Uiso   1.00
O965   O     0.24309   0.16239   0.63734   0.00000  Uiso   1.00
O966   O     0.70066   0.97246   0.63574   0.00000  Uiso   1.00
O967   O     0.65160   0.86270   0.63739   0.00000  Uiso   1.00
O968   O     0.72580   0.29560   0.79423   0.00000  Uiso   1.00
O969   O     0.68880   0.21830   0.81652   0.00000  Uiso   1.00
O970   O     0.15539   0.20685   0.60326   0.00000  Uiso   1.00
N971   N     0.32591   0.93781   0.63920   0.00000  Uiso   1.00
N972   N     0.39925   0.90632   0.64079   0.00000  Uiso   1.00
N973   N     0.87915   0.10323   0.72071   0.00000  Uiso   1.00
N974   N     0.81160   0.11334   0.74324   0.00000  Uiso   1.00
N975   N     0.13770   0.24860   0.57380   0.00000  Uiso   1.00
C976   C     0.11816   0.19058   0.67117   0.00000  Uiso   1.00
C977   C     0.05487   0.16429   0.68435   0.00000  Uiso   1.00
C978   C     0.05784   0.18809   0.70595   0.00000  Uiso   1.00
H979   H     0.09970   0.21900   0.71230   0.00000  Uiso   1.00
C980   C    -0.00000   0.16660   0.71797   0.00000  Uiso   1.00
H981   H     0.00150   0.18240   0.73270   0.00000  Uiso   1.00
C982   C     0.93935   0.12162   0.70828   0.00000  Uiso   1.00
C983   C     0.93501   0.09655   0.68763   0.00000  Uiso   1.00
H984   H     0.89290   0.06450   0.68160   0.00000  Uiso   1.00
C985   C     0.99383   0.11863   0.67520   0.00000  Uiso   1.00
H986   H     0.99180   0.10230   0.66050   0.00000  Uiso   1.00
C987   C     0.82280   0.04190   0.72252   0.00000  Uiso   1.00
H988   H     0.81520   0.00240   0.71510   0.00000  Uiso   1.00
C989   C     0.78050   0.04650   0.73636   0.00000  Uiso   1.00
H990   H     0.73770   0.01150   0.74070   0.00000  Uiso   1.00
C991   C     0.87120   0.14560   0.73338   0.00000  Uiso   1.00
H992   H     0.90290   0.19160   0.73520   0.00000  Uiso   1.00
C993   C     0.78720   0.14530   0.75745   0.00000  Uiso   1.00
C994   C     0.80510   0.20890   0.75396   0.00000  Uiso   1.00
H995   H     0.83390   0.23280   0.74190   0.00000  Uiso   1.00
C996   C     0.78110   0.23990   0.76811   0.00000  Uiso   1.00
H997   H     0.79490   0.28560   0.76570   0.00000  Uiso   1.00
C998   C     0.74170   0.20970   0.78407   0.00000  Uiso   1.00
C999   C     0.72470   0.14290   0.78960   0.00000  Uiso   1.00
H1000  H     0.70110   0.12190   0.80290   0.00000  Uiso   1.00
C1001  C     0.74460   0.11020   0.77453   0.00000  Uiso   1.00
H1002  H     0.72870   0.06370   0.77610   0.00000  Uiso   1.00
C1003  C     0.71980   0.24640   0.79880   0.00000  Uiso   1.00
C1004  C     0.64936   0.91404   0.63705   0.00000  Uiso   1.00
C1005  C     0.58402   0.91305   0.63844   0.00000  Uiso   1.00
C1006  C     0.52451   0.85256   0.63726   0.00000  Uiso   1.00
H1007  H     0.52560   0.81220   0.63580   0.00000  Uiso   1.00
C1008  C     0.46374   0.85040   0.63817   0.00000  Uiso   1.00
H1009  H     0.42320   0.80880   0.63750   0.00000  Uiso   1.00
C1010  C     0.46235   0.90883   0.64013   0.00000  Uiso   1.00
C1011  C     0.52089   0.96910   0.64261   0.00000  Uiso   1.00
H1012  H     0.51950   0.00890   0.64530   0.00000  Uiso   1.00
C1013  C     0.58158   0.97118   0.64113   0.00000  Uiso   1.00
H1014  H     0.62190   0.01290   0.64200   0.00000  Uiso   1.00
C1015  C     0.33658   0.84891   0.63986   0.00000  Uiso   1.00
H1016  H     0.32780   0.80410   0.63980   0.00000  Uiso   1.00
C1017  C     0.29165   0.86831   0.63910   0.00000  Uiso   1.00
H1018  H     0.24450   0.83990   0.63860   0.00000  Uiso   1.00
C1019  C     0.39063   0.95954   0.64086   0.00000  Uiso   1.00
H1020  H     0.42510   0.00500   0.64190   0.00000  Uiso   1.00
C1021  C     0.29607   0.97935   0.63798   0.00000  Uiso   1.00
C1022  C     0.32812   0.04241   0.64738   0.00000  Uiso   1.00
H1023  H     0.36850   0.05770   0.65550   0.00000  Uiso   1.00
C1024  C     0.23534   0.95457   0.62733   0.00000  Uiso   1.00
H1025  H     0.21310   0.91040   0.62150   0.00000  Uiso   1.00
C1026  C     0.20710   0.99510   0.62527   0.00000  Uiso   1.00
H1027  H     0.16530   0.97870   0.61800   0.00000  Uiso   1.00
C1028  C     0.23970   0.05940   0.63382   0.00000  Uiso   1.00
C1029  C     0.30048   0.08228   0.64476   0.00000  Uiso   1.00
H1030  H     0.32320   0.12650   0.65050   0.00000  Uiso   1.00
C1031  C     0.20810   0.10159   0.63078   0.00000  Uiso   1.00
C1032  C     0.17440   0.24800   0.59110   0.00000  Uiso   1.00
C1033  C     0.07720   0.18540   0.56750   0.00000  Uiso   1.00
H1034  H     0.05530   0.19360   0.55480   0.00000  Uiso   1.00
H1035  H     0.08990   0.15230   0.56320   0.00000  Uiso   1.00
H1036  H     0.04640   0.16860   0.58020   0.00000  Uiso   1.00
C1037  C     0.15460   0.31630   0.56040   0.00000  Uiso   1.00
H1038  H     0.19910   0.35230   0.56460   0.00000  Uiso   1.00
H1039  H     0.15370   0.30830   0.54430   0.00000  Uiso   1.00
H1040  H     0.12130   0.32920   0.56410   0.00000  Uiso   1.00
Zn1041 Zn    0.85999   0.54353  -0.03304   0.00000  Uiso   1.00
O1042  O     0.83900   0.56092   0.01379   0.00000  Uiso   1.00
O1043  O     0.77809   0.50493  -0.01567   0.00000  Uiso   1.00
O1044  O     0.81903   0.41065  -0.04383   0.00000  Uiso   1.00
O1045  O     0.90976   0.49572  -0.02933   0.00000  Uiso   1.00
O1046  O     0.36733   0.30579  -0.03093   0.00000  Uiso   1.00
O1047  O     0.31827   0.19603  -0.02928   0.00000  Uiso   1.00
O1048  O     0.39247   0.62893   0.12756   0.00000  Uiso   1.00
O1049  O     0.35547   0.55163   0.14985   0.00000  Uiso   1.00
O1050  O     0.82206   0.54018  -0.06341   0.00000  Uiso   1.00
N1051  N     0.99258   0.27114  -0.02747   0.00000  Uiso   1.00
N1052  N     0.06592   0.23965  -0.02588   0.00000  Uiso   1.00
N1053  N     0.54582   0.43656   0.05404   0.00000  Uiso   1.00
N1054  N     0.47827   0.44667   0.07657   0.00000  Uiso   1.00
N1055  N     0.80437   0.58193  -0.09287   0.00000  Uiso   1.00
C1056  C     0.78483   0.52391   0.00450   0.00000  Uiso   1.00
C1057  C     0.72154   0.49762   0.01768   0.00000  Uiso   1.00
C1058  C     0.72451   0.52142   0.03928   0.00000  Uiso   1.00
H1059  H     0.76637   0.55233   0.04563   0.00000  Uiso   1.00
C1060  C     0.66667   0.49993   0.05130   0.00000  Uiso   1.00
H1061  H     0.66817   0.51573   0.06603   0.00000  Uiso   1.00
C1062  C     0.60602   0.45495   0.04161   0.00000  Uiso   1.00
C1063  C     0.60168   0.42988   0.02096   0.00000  Uiso   1.00
H1064  H     0.55957   0.39783   0.01493   0.00000  Uiso   1.00
C1065  C     0.66050   0.45196   0.00853   0.00000  Uiso   1.00
H1066  H     0.65847   0.43563  -0.00617   0.00000  Uiso   1.00
C1067  C     0.48947   0.37523   0.05585   0.00000  Uiso   1.00
H1068  H     0.48187   0.33573   0.04843   0.00000  Uiso   1.00
C1069  C     0.44717   0.37983   0.06969   0.00000  Uiso   1.00
H1070  H     0.40437   0.34483   0.07403   0.00000  Uiso   1.00
C1071  C     0.53787   0.47893   0.06671   0.00000  Uiso   1.00
H1072  H     0.56957   0.52493   0.06853   0.00000  Uiso   1.00
C1073  C     0.45387   0.47863   0.09078   0.00000  Uiso   1.00
C1074  C     0.47177   0.54223   0.08729   0.00000  Uiso   1.00
H1075  H     0.50057   0.56613   0.07523   0.00000  Uiso   1.00
C1076  C     0.44777   0.57323   0.10144   0.00000  Uiso   1.00
H1077  H     0.46157   0.61893   0.09903   0.00000  Uiso   1.00
C1078  C     0.40837   0.54303   0.11740   0.00000  Uiso   1.00
C1079  C     0.39137   0.47623   0.12293   0.00000  Uiso   1.00
H1080  H     0.36777   0.45523   0.13623   0.00000  Uiso   1.00
C1081  C     0.41127   0.44353   0.10786   0.00000  Uiso   1.00
H1082  H     0.39537   0.39703   0.10943   0.00000  Uiso   1.00
C1083  C     0.38647   0.57973   0.13213   0.00000  Uiso   1.00
C1084  C     0.31603   0.24737  -0.02962   0.00000  Uiso   1.00
C1085  C     0.25069   0.24638  -0.02823   0.00000  Uiso   1.00
C1086  C     0.19118   0.18589  -0.02941   0.00000  Uiso   1.00
H1087  H     0.19227   0.14553  -0.03087   0.00000  Uiso   1.00
C1088  C     0.13041   0.18373  -0.02850   0.00000  Uiso   1.00
H1089  H     0.08987   0.14213  -0.02917   0.00000  Uiso   1.00
C1090  C     0.12902   0.24216  -0.02654   0.00000  Uiso   1.00
C1091  C     0.18756   0.30243  -0.02406   0.00000  Uiso   1.00
H1092  H     0.18617   0.34223  -0.02137   0.00000  Uiso   1.00
C1093  C     0.24825   0.30451  -0.02554   0.00000  Uiso   1.00
H1094  H     0.28857   0.34623  -0.02467   0.00000  Uiso   1.00
C1095  C     0.00325   0.18224  -0.02681   0.00000  Uiso   1.00
H1096  H     0.99447   0.13743  -0.02687   0.00000  Uiso   1.00
C1097  C     0.95832   0.20164  -0.02757   0.00000  Uiso   1.00
H1098  H     0.91117   0.17323  -0.02807   0.00000  Uiso   1.00
C1099  C     0.05730   0.29287  -0.02581   0.00000  Uiso   1.00
H1100  H     0.09177   0.33833  -0.02477   0.00000  Uiso   1.00
C1101  C     0.96274   0.31268  -0.02869   0.00000  Uiso   1.00
C1102  C     0.99479   0.37574  -0.01929   0.00000  Uiso   1.00
H1103  H     0.03517   0.39103  -0.01117   0.00000  Uiso   1.00
C1104  C     0.90201   0.28790  -0.03934   0.00000  Uiso   1.00
H1105  H     0.87977   0.24373  -0.04517   0.00000  Uiso   1.00
C1106  C     0.87377   0.32843  -0.04140   0.00000  Uiso   1.00
H1107  H     0.83197   0.31203  -0.04867   0.00000  Uiso   1.00
C1108  C     0.90637   0.39273  -0.03285   0.00000  Uiso   1.00
C1109  C     0.96715   0.41561  -0.02191   0.00000  Uiso   1.00
H1110  H     0.98987   0.45983  -0.01617   0.00000  Uiso   1.00
C1111  C     0.87477   0.43492  -0.03589   0.00000  Uiso   1.00
C1112  C     0.84107   0.58133  -0.07557   0.00000  Uiso   1.00
C1113  C     0.74387   0.51873  -0.09917   0.00000  Uiso   1.00
H1114  H     0.72197   0.52693  -0.11187   0.00000  Uiso   1.00
H1115  H     0.75657   0.48563  -0.10347   0.00000  Uiso   1.00
H1116  H     0.71307   0.50193  -0.08647   0.00000  Uiso   1.00
C1117  C     0.82127   0.64963  -0.10627   0.00000  Uiso   1.00
H1118  H     0.86577   0.68563  -0.10207   0.00000  Uiso   1.00
H1119  H     0.82037   0.64163  -0.12237   0.00000  Uiso   1.00
H1120  H     0.78797   0.66253  -0.10257   0.00000  Uiso   1.00
Zn1121 Zn    0.52666   0.87686   0.30029   0.00000  Uiso   1.00
O1122  O     0.50566   0.89426   0.34713   0.00000  Uiso   1.00
O1123  O     0.44475   0.83827   0.31767   0.00000  Uiso   1.00
O1124  O     0.48569   0.74399   0.28951   0.00000  Uiso   1.00
O1125  O     0.57642   0.82906   0.30401   0.00000  Uiso   1.00
O1126  O     0.03399   0.63913   0.30241   0.00000  Uiso   1.00
O1127  O     0.98493   0.52937   0.30406   0.00000  Uiso   1.00
O1128  O     0.05913   0.96227   0.46090   0.00000  Uiso   1.00
O1129  O     0.02213   0.88497   0.48319   0.00000  Uiso   1.00
O1130  O     0.48872   0.87352   0.26993   0.00000  Uiso   1.00
N1131  N     0.65924   0.60448   0.30587   0.00000  Uiso   1.00
N1132  N     0.73258   0.57299   0.30746   0.00000  Uiso   1.00
N1133  N     0.21248   0.76990   0.38738   0.00000  Uiso   1.00
N1134  N     0.14493   0.78001   0.40991   0.00000  Uiso   1.00
N1135  N     0.47103   0.91527   0.24047   0.00000  Uiso   1.00
C1136  C     0.45149   0.85725   0.33784   0.00000  Uiso   1.00
C1137  C     0.38820   0.83096   0.35102   0.00000  Uiso   1.00
C1138  C     0.39117   0.85476   0.37262   0.00000  Uiso   1.00
H1139  H     0.43303   0.88567   0.37897   0.00000  Uiso   1.00
C1140  C     0.33333   0.83327   0.38464   0.00000  Uiso   1.00
H1141  H     0.33483   0.84907   0.39937   0.00000  Uiso   1.00
C1142  C     0.27268   0.78829   0.37495   0.00000  Uiso   1.00
C1143  C     0.26834   0.76322   0.35430   0.00000  Uiso   1.00
H1144  H     0.22623   0.73117   0.34827   0.00000  Uiso   1.00
C1145  C     0.32716   0.78530   0.34187   0.00000  Uiso   1.00
H1146  H     0.32513   0.76897   0.32717   0.00000  Uiso   1.00
C1147  C     0.15613   0.70857   0.38919   0.00000  Uiso   1.00
H1148  H     0.14853   0.66907   0.38177   0.00000  Uiso   1.00
C1149  C     0.11383   0.71317   0.40303   0.00000  Uiso   1.00
H1150  H     0.07103   0.67817   0.40737   0.00000  Uiso   1.00
C1151  C     0.20453   0.81227   0.40005   0.00000  Uiso   1.00
H1152  H     0.23623   0.85827   0.40187   0.00000  Uiso   1.00
C1153  C     0.12053   0.81197   0.42412   0.00000  Uiso   1.00
C1154  C     0.13843   0.87557   0.42063   0.00000  Uiso   1.00
H1155  H     0.16723   0.89947   0.40857   0.00000  Uiso   1.00
C1156  C     0.11443   0.90657   0.43478   0.00000  Uiso   1.00
H1157  H     0.12823   0.95227   0.43237   0.00000  Uiso   1.00
C1158  C     0.07503   0.87637   0.45074   0.00000  Uiso   1.00
C1159  C     0.05803   0.80957   0.45627   0.00000  Uiso   1.00
H1160  H     0.03443   0.78857   0.46957   0.00000  Uiso   1.00
C1161  C     0.07793   0.77687   0.44120   0.00000  Uiso   1.00
H1162  H     0.06203   0.73037   0.44277   0.00000  Uiso   1.00
C1163  C     0.05313   0.91307   0.46547   0.00000  Uiso   1.00
C1164  C     0.98269   0.58071   0.30372   0.00000  Uiso   1.00
C1165  C     0.91735   0.57972   0.30511   0.00000  Uiso   1.00
C1166  C     0.85784   0.51923   0.30393   0.00000  Uiso   1.00
H1167  H     0.85893   0.47887   0.30247   0.00000  Uiso   1.00
C1168  C     0.79707   0.51707   0.30484   0.00000  Uiso   1.00
H1169  H     0.75653   0.47547   0.30417   0.00000  Uiso   1.00
C1170  C     0.79568   0.57550   0.30680   0.00000  Uiso   1.00
C1171  C     0.85422   0.63577   0.30928   0.00000  Uiso   1.00
H1172  H     0.85283   0.67557   0.31197   0.00000  Uiso   1.00
C1173  C     0.91491   0.63785   0.30780   0.00000  Uiso   1.00
H1174  H     0.95523   0.67957   0.30867   0.00000  Uiso   1.00
C1175  C     0.66991   0.51558   0.30653   0.00000  Uiso   1.00
H1176  H     0.66113   0.47077   0.30647   0.00000  Uiso   1.00
C1177  C     0.62498   0.53498   0.30577   0.00000  Uiso   1.00
H1178  H     0.57783   0.50657   0.30527   0.00000  Uiso   1.00
C1179  C     0.72396   0.62621   0.30753   0.00000  Uiso   1.00
H1180  H     0.75843   0.67167   0.30857   0.00000  Uiso   1.00
C1181  C     0.62940   0.64602   0.30465   0.00000  Uiso   1.00
C1182  C     0.66145   0.70908   0.31405   0.00000  Uiso   1.00
H1183  H     0.70183   0.72437   0.32217   0.00000  Uiso   1.00
C1184  C     0.56867   0.62124   0.29400   0.00000  Uiso   1.00
H1185  H     0.54643   0.57707   0.28817   0.00000  Uiso   1.00
C1186  C     0.54043   0.66177   0.29194   0.00000  Uiso   1.00
H1187  H     0.49863   0.64537   0.28467   0.00000  Uiso   1.00
C1188  C     0.57303   0.72607   0.30049   0.00000  Uiso   1.00
C1189  C     0.63381   0.74895   0.31143   0.00000  Uiso   1.00
H1190  H     0.65653   0.79317   0.31717   0.00000  Uiso   1.00
C1191  C     0.54143   0.76826   0.29745   0.00000  Uiso   1.00
C1192  C     0.50773   0.91467   0.25777   0.00000  Uiso   1.00
C1193  C     0.41053   0.85207   0.23417   0.00000  Uiso   1.00
H1194  H     0.38863   0.86027   0.22147   0.00000  Uiso   1.00
H1195  H     0.42323   0.81897   0.22987   0.00000  Uiso   1.00
H1196  H     0.37973   0.83527   0.24687   0.00000  Uiso   1.00
C1197  C     0.48793   0.98297   0.22707   0.00000  Uiso   1.00
H1198  H     0.53243   0.01897   0.23127   0.00000  Uiso   1.00
H1199  H     0.48703   0.97497   0.21097   0.00000  Uiso   1.00
H1200  H     0.45463   0.99587   0.23077   0.00000  Uiso   1.00
Zn1201 Zn    0.78981   0.98313   0.63363   0.00000  Uiso   1.00
O1202  O     0.77241   0.94474   0.68046   0.00000  Uiso   1.00
O1203  O     0.82840   0.93982   0.65100   0.00000  Uiso   1.00
O1204  O     0.92268   0.07504   0.62284   0.00000  Uiso   1.00
O1205  O     0.83761   0.08070   0.63734   0.00000  Uiso   1.00
O1206  O     0.02754   0.72820   0.63574   0.00000  Uiso   1.00
O1207  O     0.13730   0.78890   0.63739   0.00000  Uiso   1.00
O1208  O     0.70440   0.43020   0.79423   0.00000  Uiso   1.00
O1209  O     0.78170   0.47050   0.81652   0.00000  Uiso   1.00
O1210  O     0.79315   0.94854   0.60326   0.00000  Uiso   1.00
N1211  N     0.06219   0.38810   0.63920   0.00000  Uiso   1.00
N1212  N     0.09368   0.49293   0.64079   0.00000  Uiso   1.00
N1213  N     0.89677   0.77592   0.72071   0.00000  Uiso   1.00
N1214  N     0.88666   0.69826   0.74324   0.00000  Uiso   1.00
N1215  N     0.75140   0.88910   0.57380   0.00000  Uiso   1.00
C1216  C     0.80942   0.92758   0.67117   0.00000  Uiso   1.00
C1217  C     0.83571   0.89058   0.68435   0.00000  Uiso   1.00
C1218  C     0.81191   0.86975   0.70595   0.00000  Uiso   1.00
H1219  H     0.78100   0.88070   0.71230   0.00000  Uiso   1.00
C1220  C     0.83340   0.83340   0.71797   0.00000  Uiso   1.00
H1221  H     0.81760   0.81910   0.73270   0.00000  Uiso   1.00
C1222  C     0.87838   0.81773   0.70828   0.00000  Uiso   1.00
C1223  C     0.90345   0.83846   0.68763   0.00000  Uiso   1.00
H1224  H     0.93550   0.82840   0.68160   0.00000  Uiso   1.00
C1225  C     0.88137   0.87520   0.67520   0.00000  Uiso   1.00
H1226  H     0.89770   0.88950   0.66050   0.00000  Uiso   1.00
C1227  C     0.95810   0.78090   0.72252   0.00000  Uiso   1.00
H1228  H     0.99760   0.81280   0.71510   0.00000  Uiso   1.00
C1229  C     0.95350   0.73400   0.73636   0.00000  Uiso   1.00
H1230  H     0.98850   0.72620   0.74070   0.00000  Uiso   1.00
C1231  C     0.85440   0.72560   0.73338   0.00000  Uiso   1.00
H1232  H     0.80840   0.71130   0.73520   0.00000  Uiso   1.00
C1233  C     0.85470   0.64190   0.75745   0.00000  Uiso   1.00
C1234  C     0.79110   0.59620   0.75396   0.00000  Uiso   1.00
H1235  H     0.76720   0.60110   0.74190   0.00000  Uiso   1.00
C1236  C     0.76010   0.54120   0.76811   0.00000  Uiso   1.00
H1237  H     0.71440   0.50930   0.76570   0.00000  Uiso   1.00
C1238  C     0.79030   0.53200   0.78407   0.00000  Uiso   1.00
C1239  C     0.85710   0.58180   0.78960   0.00000  Uiso   1.00
H1240  H     0.87810   0.57920   0.80290   0.00000  Uiso   1.00
C1241  C     0.88980   0.63440   0.77453   0.00000  Uiso   1.00
H1242  H     0.93630   0.66500   0.77610   0.00000  Uiso   1.00
C1243  C     0.75360   0.47340   0.79880   0.00000  Uiso   1.00
C1244  C     0.08596   0.73532   0.63705   0.00000  Uiso   1.00
C1245  C     0.08695   0.67097   0.63844   0.00000  Uiso   1.00
C1246  C     0.14744   0.67195   0.63726   0.00000  Uiso   1.00
H1247  H     0.18780   0.71340   0.63580   0.00000  Uiso   1.00
C1248  C     0.14960   0.61334   0.63817   0.00000  Uiso   1.00
H1249  H     0.19120   0.61440   0.63750   0.00000  Uiso   1.00
C1250  C     0.09117   0.55352   0.64013   0.00000  Uiso   1.00
C1251  C     0.03090   0.55179   0.64261   0.00000  Uiso   1.00
H1252  H     0.99110   0.51060   0.64530   0.00000  Uiso   1.00
C1253  C     0.02882   0.61040   0.64113   0.00000  Uiso   1.00
H1254  H     0.98710   0.60900   0.64200   0.00000  Uiso   1.00
C1255  C     0.15109   0.48767   0.63986   0.00000  Uiso   1.00
H1256  H     0.19590   0.52370   0.63980   0.00000  Uiso   1.00
C1257  C     0.13169   0.42334   0.63910   0.00000  Uiso   1.00
H1258  H     0.16010   0.40460   0.63860   0.00000  Uiso   1.00
C1259  C     0.04046   0.43109   0.64086   0.00000  Uiso   1.00
H1260  H     0.99500   0.42010   0.64190   0.00000  Uiso   1.00
C1261  C     0.02065   0.31672   0.63798   0.00000  Uiso   1.00
C1262  C     0.95759   0.28571   0.64738   0.00000  Uiso   1.00
H1263  H     0.94230   0.31080   0.65550   0.00000  Uiso   1.00
C1264  C     0.04543   0.28077   0.62733   0.00000  Uiso   1.00
H1265  H     0.08960   0.30270   0.62150   0.00000  Uiso   1.00
C1266  C     0.00490   0.21200   0.62527   0.00000  Uiso   1.00
H1267  H     0.02130   0.18660   0.61800   0.00000  Uiso   1.00
C1268  C     0.94060   0.18030   0.63382   0.00000  Uiso   1.00
C1269  C     0.91772   0.21820   0.64476   0.00000  Uiso   1.00
H1270  H     0.87350   0.19670   0.65050   0.00000  Uiso   1.00
C1271  C     0.89841   0.10651   0.63078   0.00000  Uiso   1.00
C1272  C     0.75200   0.92640   0.59110   0.00000  Uiso   1.00
C1273  C     0.81460   0.89180   0.56750   0.00000  Uiso   1.00
H1274  H     0.80640   0.86170   0.55480   0.00000  Uiso   1.00
H1275  H     0.84770   0.93760   0.56320   0.00000  Uiso   1.00
H1276  H     0.83140   0.87780   0.58020   0.00000  Uiso   1.00
C1277  C     0.68370   0.83830   0.56040   0.00000  Uiso   1.00
H1278  H     0.64770   0.84680   0.56460   0.00000  Uiso   1.00
H1279  H     0.69170   0.84540   0.54430   0.00000  Uiso   1.00
H1280  H     0.67080   0.79210   0.56410   0.00000  Uiso   1.00
Zn1281 Zn    0.45647   0.31647  -0.03304   0.00000  Uiso   1.00
O1282  O     0.43908   0.27807   0.01379   0.00000  Uiso   1.00
O1283  O     0.49507   0.27315  -0.01567   0.00000  Uiso   1.00
O1284  O     0.58935   0.40837  -0.04383   0.00000  Uiso   1.00
O1285  O     0.50428   0.41403  -0.02933   0.00000  Uiso   1.00
O1286  O     0.69421   0.06153  -0.03093   0.00000  Uiso   1.00
O1287  O     0.80397   0.12223  -0.02928   0.00000  Uiso   1.00
O1288  O     0.37107   0.76353   0.12756   0.00000  Uiso   1.00
O1289  O     0.44837   0.80383   0.14985   0.00000  Uiso   1.00
O1290  O     0.45982   0.28187  -0.06341   0.00000  Uiso   1.00
N1291  N     0.72886   0.72143  -0.02747   0.00000  Uiso   1.00
N1292  N     0.76035   0.82626  -0.02588   0.00000  Uiso   1.00
N1293  N     0.56344   0.10925   0.05404   0.00000  Uiso   1.00
N1294  N     0.55333   0.03159   0.07657   0.00000  Uiso   1.00
N1295  N     0.41807   0.22243  -0.09287   0.00000  Uiso   1.00
C1296  C     0.47609   0.26091   0.00450   0.00000  Uiso   1.00
C1297  C     0.50238   0.22391   0.01768   0.00000  Uiso   1.00
C1298  C     0.47858   0.20308   0.03928   0.00000  Uiso   1.00
H1299  H     0.44767   0.21403   0.04563   0.00000  Uiso   1.00
C1300  C     0.50007   0.16673   0.05130   0.00000  Uiso   1.00
H1301  H     0.48427   0.15243   0.06603   0.00000  Uiso   1.00
C1302  C     0.54505   0.15106   0.04161   0.00000  Uiso   1.00
C1303  C     0.57012   0.17179   0.02096   0.00000  Uiso   1.00
H1304  H     0.60217   0.16173   0.01493   0.00000  Uiso   1.00
C1305  C     0.54804   0.20853   0.00853   0.00000  Uiso   1.00
H1306  H     0.56437   0.22283  -0.00617   0.00000  Uiso   1.00
C1307  C     0.62477   0.11423   0.05585   0.00000  Uiso   1.00
H1308  H     0.66427   0.14613   0.04843   0.00000  Uiso   1.00
C1309  C     0.62017   0.06733   0.06969   0.00000  Uiso   1.00
H1310  H     0.65517   0.05953   0.07403   0.00000  Uiso   1.00
C1311  C     0.52107   0.05893   0.06671   0.00000  Uiso   1.00
H1312  H     0.47507   0.04463   0.06853   0.00000  Uiso   1.00
C1313  C     0.52137   0.97523   0.09078   0.00000  Uiso   1.00
C1314  C     0.45777   0.92953   0.08729   0.00000  Uiso   1.00
H1315  H     0.43387   0.93443   0.07523   0.00000  Uiso   1.00
C1316  C     0.42677   0.87453   0.10144   0.00000  Uiso   1.00
H1317  H     0.38107   0.84263   0.09903   0.00000  Uiso   1.00
C1318  C     0.45697   0.86533   0.11740   0.00000  Uiso   1.00
C1319  C     0.52377   0.91513   0.12293   0.00000  Uiso   1.00
H1320  H     0.54477   0.91253   0.13623   0.00000  Uiso   1.00
C1321  C     0.55647   0.96773   0.10786   0.00000  Uiso   1.00
H1322  H     0.60297   0.99833   0.10943   0.00000  Uiso   1.00
C1323  C     0.42027   0.80673   0.13213   0.00000  Uiso   1.00
C1324  C     0.75263   0.06865  -0.02962   0.00000  Uiso   1.00
C1325  C     0.75362   0.00430  -0.02823   0.00000  Uiso   1.00
C1326  C     0.81411   0.00528  -0.02941   0.00000  Uiso   1.00
H1327  H     0.85447   0.04673  -0.03087   0.00000  Uiso   1.00
C1328  C     0.81627   0.94667  -0.02850   0.00000  Uiso   1.00
H1329  H     0.85787   0.94773  -0.02917   0.00000  Uiso   1.00
C1330  C     0.75784   0.88685  -0.02654   0.00000  Uiso   1.00
C1331  C     0.69757   0.88512  -0.02406   0.00000  Uiso   1.00
H1332  H     0.65777   0.84393  -0.02137   0.00000  Uiso   1.00
C1333  C     0.69549   0.94373  -0.02554   0.00000  Uiso   1.00
H1334  H     0.65377   0.94233  -0.02467   0.00000  Uiso   1.00
C1335  C     0.81776   0.82100  -0.02681   0.00000  Uiso   1.00
H1336  H     0.86257   0.85703  -0.02687   0.00000  Uiso   1.00
C1337  C     0.79836   0.75667  -0.02757   0.00000  Uiso   1.00
H1338  H     0.82677   0.73793  -0.02807   0.00000  Uiso   1.00
C1339  C     0.70713   0.76442  -0.02581   0.00000  Uiso   1.00
H1340  H     0.66167   0.75343  -0.02477   0.00000  Uiso   1.00
C1341  C     0.68732   0.65005  -0.02869   0.00000  Uiso   1.00
C1342  C     0.62426   0.61904  -0.01929   0.00000  Uiso   1.00
H1343  H     0.60897   0.64413  -0.01117   0.00000  Uiso   1.00
C1344  C     0.71210   0.61410  -0.03934   0.00000  Uiso   1.00
H1345  H     0.75627   0.63603  -0.04517   0.00000  Uiso   1.00
C1346  C     0.67157   0.54533  -0.04140   0.00000  Uiso   1.00
H1347  H     0.68797   0.51993  -0.04867   0.00000  Uiso   1.00
C1348  C     0.60727   0.51363  -0.03285   0.00000  Uiso   1.00
C1349  C     0.58439   0.55153  -0.02191   0.00000  Uiso   1.00
H1350  H     0.54017   0.53003  -0.01617   0.00000  Uiso   1.00
C1351  C     0.56508   0.43984  -0.03589   0.00000  Uiso   1.00
C1352  C     0.41867   0.25973  -0.07557   0.00000  Uiso   1.00
C1353  C     0.48127   0.22513  -0.09917   0.00000  Uiso   1.00
H1354  H     0.47307   0.19503  -0.11187   0.00000  Uiso   1.00
H1355  H     0.51437   0.27093  -0.10347   0.00000  Uiso   1.00
H1356  H     0.49807   0.21113  -0.08647   0.00000  Uiso   1.00
C1357  C     0.35037   0.17163  -0.10627   0.00000  Uiso   1.00
H1358  H     0.31437   0.18013  -0.10207   0.00000  Uiso   1.00
H1359  H     0.35837   0.17873  -0.12237   0.00000  Uiso   1.00
H1360  H     0.33747   0.12543  -0.10257   0.00000  Uiso   1.00
Zn1361 Zn    0.12314   0.64980   0.30029   0.00000  Uiso   1.00
O1362  O     0.10574   0.61141   0.34713   0.00000  Uiso   1.00
O1363  O     0.16173   0.60649   0.31767   0.00000  Uiso   1.00
O1364  O     0.25601   0.74171   0.28951   0.00000  Uiso   1.00
O1365  O     0.17094   0.74737   0.30401   0.00000  Uiso   1.00
O1366  O     0.36087   0.39487   0.30241   0.00000  Uiso   1.00
O1367  O     0.47063   0.45557   0.30406   0.00000  Uiso   1.00
O1368  O     0.03773   0.09687   0.46090   0.00000  Uiso   1.00
O1369  O     0.11503   0.13717   0.48319   0.00000  Uiso   1.00
O1370  O     0.12648   0.61521   0.26993   0.00000  Uiso   1.00
N1371  N     0.39552   0.05477   0.30587   0.00000  Uiso   1.00
N1372  N     0.42701   0.15960   0.30746   0.00000  Uiso   1.00
N1373  N     0.23010   0.44259   0.38738   0.00000  Uiso   1.00
N1374  N     0.21999   0.36493   0.40991   0.00000  Uiso   1.00
N1375  N     0.08473   0.55577   0.24047   0.00000  Uiso   1.00
C1376  C     0.14275   0.59425   0.33784   0.00000  Uiso   1.00
C1377  C     0.16904   0.55725   0.35102   0.00000  Uiso   1.00
C1378  C     0.14524   0.53642   0.37262   0.00000  Uiso   1.00
H1379  H     0.11433   0.54737   0.37897   0.00000  Uiso   1.00
C1380  C     0.16673   0.50007   0.38464   0.00000  Uiso   1.00
H1381  H     0.15093   0.48577   0.39937   0.00000  Uiso   1.00
C1382  C     0.21171   0.48440   0.37495   0.00000  Uiso   1.00
C1383  C     0.23678   0.50513   0.35430   0.00000  Uiso   1.00
H1384  H     0.26883   0.49507   0.34827   0.00000  Uiso   1.00
C1385  C     0.21470   0.54187   0.34187   0.00000  Uiso   1.00
H1386  H     0.23103   0.55617   0.32717   0.00000  Uiso   1.00
C1387  C     0.29143   0.44757   0.38919   0.00000  Uiso   1.00
H1388  H     0.33093   0.47947   0.38177   0.00000  Uiso   1.00
C1389  C     0.28683   0.40067   0.40303   0.00000  Uiso   1.00
H1390  H     0.32183   0.39287   0.40737   0.00000  Uiso   1.00
C1391  C     0.18773   0.39227   0.40005   0.00000  Uiso   1.00
H1392  H     0.14173   0.37797   0.40187   0.00000  Uiso   1.00
C1393  C     0.18803   0.30857   0.42412   0.00000  Uiso   1.00
C1394  C     0.12443   0.26287   0.42063   0.00000  Uiso   1.00
H1395  H     0.10053   0.26777   0.40857   0.00000  Uiso   1.00
C1396  C     0.09343   0.20787   0.43478   0.00000  Uiso   1.00
H1397  H     0.04773   0.17597   0.43237   0.00000  Uiso   1.00
C1398  C     0.12363   0.19867   0.45074   0.00000  Uiso   1.00
C1399  C     0.19043   0.24847   0.45627   0.00000  Uiso   1.00
H1400  H     0.21143   0.24587   0.46957   0.00000  Uiso   1.00
C1401  C     0.22313   0.30107   0.44120   0.00000  Uiso   1.00
H1402  H     0.26963   0.33167   0.44277   0.00000  Uiso   1.00
C1403  C     0.08693   0.14007   0.46547   0.00000  Uiso   1.00
C1404  C     0.41929   0.40199   0.30372   0.00000  Uiso   1.00
C1405  C     0.42028   0.33764   0.30511   0.00000  Uiso   1.00
C1406  C     0.48077   0.33862   0.30393   0.00000  Uiso   1.00
H1407  H     0.52113   0.38007   0.30247   0.00000  Uiso   1.00
C1408  C     0.48293   0.28001   0.30484   0.00000  Uiso   1.00
H1409  H     0.52453   0.28107   0.30417   0.00000  Uiso   1.00
C1410  C     0.42450   0.22019   0.30680   0.00000  Uiso   1.00
C1411  C     0.36423   0.21846   0.30928   0.00000  Uiso   1.00
H1412  H     0.32443   0.17727   0.31197   0.00000  Uiso   1.00
C1413  C     0.36215   0.27707   0.30780   0.00000  Uiso   1.00
H1414  H     0.32043   0.27567   0.30867   0.00000  Uiso   1.00
C1415  C     0.48442   0.15434   0.30653   0.00000  Uiso   1.00
H1416  H     0.52923   0.19037   0.30647   0.00000  Uiso   1.00
C1417  C     0.46502   0.09001   0.30577   0.00000  Uiso   1.00
H1418  H     0.49343   0.07127   0.30527   0.00000  Uiso   1.00
C1419  C     0.37379   0.09776   0.30753   0.00000  Uiso   1.00
H1420  H     0.32833   0.08677   0.30857   0.00000  Uiso   1.00
C1421  C     0.35398   0.98339   0.30465   0.00000  Uiso   1.00
C1422  C     0.29092   0.95238   0.31405   0.00000  Uiso   1.00
H1423  H     0.27563   0.97747   0.32217   0.00000  Uiso   1.00
C1424  C     0.37876   0.94744   0.29400   0.00000  Uiso   1.00
H1425  H     0.42293   0.96937   0.28817   0.00000  Uiso   1.00
C1426  C     0.33823   0.87867   0.29194   0.00000  Uiso   1.00
H1427  H     0.35463   0.85327   0.28467   0.00000  Uiso   1.00
C1428  C     0.27393   0.84697   0.30049   0.00000  Uiso   1.00
C1429  C     0.25105   0.88487   0.31143   0.00000  Uiso   1.00
H1430  H     0.20683   0.86337   0.31717   0.00000  Uiso   1.00
C1431  C     0.23174   0.77318   0.29745   0.00000  Uiso   1.00
C1432  C     0.08533   0.59307   0.25777   0.00000  Uiso   1.00
C1433  C     0.14793   0.55847   0.23417   0.00000  Uiso   1.00
H1434  H     0.13973   0.52837   0.22147   0.00000  Uiso   1.00
H1435  H     0.18103   0.60427   0.22987   0.00000  Uiso   1.00
H1436  H     0.16473   0.54447   0.24687   0.00000  Uiso   1.00
C1437  C     0.01703   0.50497   0.22707   0.00000  Uiso   1.00
H1438  H     0.98103   0.51347   0.23127   0.00000  Uiso   1.00
H1439  H     0.02503   0.51207   0.21097   0.00000  Uiso   1.00
H1440  H     0.00413   0.45877   0.23077   0.00000  Uiso   1.00
Zn1441 Zn    0.33333   0.66667   0.19716   0.00000  Uiso   1.00
Zn1442 Zn    0.00000  -0.00000   0.53049   0.00000  Uiso   1.00
Zn1443 Zn    0.66667   0.33333   0.86383   0.00000  Uiso   1.00
Zn1444 Zn    0.66667   0.33333   0.80284   0.00000  Uiso   1.00
Zn1445 Zn    0.33333   0.66667   0.13617   0.00000  Uiso   1.00
Zn1446 Zn   -0.00000   0.00000   0.46951   0.00000  Uiso   1.00
O1447  O     0.33333   0.66667   0.16667   0.00000  Uiso   1.00
O1448  O     0.00000  -0.00000   0.50000   0.00000  Uiso   1.00
O1449  O     0.66667   0.33333   0.83333   0.00000  Uiso   1.00
loop_
_geom_bond_atom_site_label_1
_geom_bond_atom_site_label_2
_geom_bond_distance
_geom_bond_site_symmetry_2
_ccdc_geom_bond_type
Zn1    O3      1.943   .     S
Zn1    O5      1.965   1_655 S
Zn1    O10     2.006   .     S
Zn1    O486    1.952   .     S
O2     C16     1.240   .     S
O3     C16     1.270   .     S
O4     C71     1.215   .     S
O5     Zn1     1.965   1_455 S
O5     C71     1.283   .     S
O6     C44     1.278   .     S
O6     Zn241   1.952   .     S
O7     C44     1.213   .     S
O8     Zn1441  2.021   .     S
O8     C43     1.108   .     S
O9     C43     1.264   .     S
O10    C72     1.100   .     S
N11    C57     1.391   .     S
N11    C59     1.322   .     S
N11    C61     1.436   .     S
N12    C50     1.430   .     S
N12    C55     1.392   .     S
N12    C59     1.340   .     S
N13    C22     1.442   .     S
N13    C27     1.367   .     S
N13    C31     1.323   .     S
N14    C29     1.401   .     S
N14    C33     1.416   .     S
N14    C31     1.332   .     S
N15    C72     1.344   .     S
N15    C73     1.479   .     S
N15    C77     1.623   .     S
C16    C17     1.498   .     S
C17    C18     1.396   .     S
C17    C25     1.384   1_545 S
C18    H19     0.948   .     S
C18    C20     1.374   .     S
C20    H21     0.950   .     S
C20    C22     1.387   1_545 S
C22    C20     1.387   1_565 S
C22    C23     1.350   .     S
C23    H24     0.951   .     S
C23    C25     1.403   .     S
C25    C17     1.384   1_565 S
C25    H26     0.951   .     S
C27    H28     0.949   .     S
C27    C29     1.326   .     S
C29    H30     0.949   .     S
C31    H32     0.948   .     S
C33    C34     1.329   .     S
C33    C41     1.370   .     S
C34    H35     0.950   .     S
C34    C36     1.392   .     S
C36    H37     0.949   .     S
C36    C38     1.264   .     S
C38    C39     1.428   .     S
C38    C43     1.478   .     S
C39    H40     0.951   .     S
C39    C41     1.395   .     S
C41    H42     0.950   .     S
C44    C45     1.500   .     S
C45    C46     1.388   .     S
C45    C53     1.381   .     S
C46    H47     0.949   .     S
C46    C48     1.381   .     S
C48    H49     0.950   .     S
C48    C50     1.371   .     S
C50    C51     1.381   .     S
C51    H52     0.950   .     S
C51    C53     1.382   .     S
C53    H54     0.949   .     S
C55    H56     0.950   .     S
C55    C57     1.321   .     S
C57    H58     0.950   .     S
C59    H60     0.951   .     S
C61    C62     1.382   .     S
C61    C64     1.379   .     S
C62    H63     0.950   .     S
C62    C69     1.367   .     S
C64    H65     0.950   .     S
C64    C66     1.389   .     S
C66    H67     0.949   .     S
C66    C68     1.385   .     S
C68    C69     1.393   .     S
C68    C71     1.493   .     S
C69    H70     0.949   .     S
C73    H74     0.984   .     S
C73    H75     0.981   .     S
C73    H76     0.980   .     S
C77    H78     0.978   .     S
C77    H79     0.981   .     S
C77    H80     0.979   .     S
Zn81   O83     1.943   .     S
Zn81   O85     1.965   .     S
Zn81   O90     2.006   .     S
Zn81   O566    1.952   .     S
O82    C96     1.240   .     S
O83    C96     1.270   .     S
O84    C151    1.215   .     S
O85    C151    1.283   .     S
O86    C124    1.278   1_545 S
O86    Zn321   1.952   .     S
O87    C124    1.213   .     S
O88    Zn1442  2.021   .     S
O88    C123    1.108   .     S
O89    C123    1.264   .     S
O90    C152    1.100   .     S
N91    C137    1.391   .     S
N91    C139    1.322   .     S
N91    C141    1.436   1_455 S
N92    C130    1.430   .     S
N92    C135    1.392   .     S
N92    C139    1.340   .     S
N93    C102    1.442   .     S
N93    C107    1.367   .     S
N93    C111    1.323   .     S
N94    C109    1.401   .     S
N94    C113    1.416   .     S
N94    C111    1.332   .     S
N95    C152    1.344   .     S
N95    C153    1.479   .     S
N95    C157    1.623   .     S
C96    C97     1.498   .     S
C97    C98     1.396   .     S
C97    C105    1.384   .     S
C98    H99     0.948   .     S
C98    C100    1.374   .     S
C100   H101    0.950   .     S
C100   C102    1.387   .     S
C102   C103    1.350   .     S
C103   H104    0.951   .     S
C103   C105    1.403   .     S
C105   H106    0.951   .     S
C107   H108    0.949   .     S
C107   C109    1.326   .     S
C109   H110    0.949   .     S
C111   H112    0.948   .     S
C113   C114    1.329   .     S
C113   C121    1.370   .     S
C114   H115    0.950   .     S
C114   C116    1.392   .     S
C116   H117    0.949   .     S
C116   C118    1.264   .     S
C118   C119    1.428   .     S
C118   C123    1.478   .     S
C119   H120    0.951   .     S
C119   C121    1.395   .     S
C121   H122    0.950   .     S
C124   O86     1.278   1_565 S
C124   C125    1.500   .     S
C125   C126    1.388   .     S
C125   C133    1.381   .     S
C126   H127    0.949   .     S
C126   C128    1.381   .     S
C128   H129    0.950   .     S
C128   C130    1.371   .     S
C130   C131    1.381   .     S
C131   H132    0.950   .     S
C131   C133    1.382   .     S
C133   H134    0.949   .     S
C135   H136    0.950   .     S
C135   C137    1.321   .     S
C137   H138    0.950   .     S
C139   H140    0.951   .     S
C141   N91     1.436   1_655 S
C141   C142    1.382   .     S
C141   C144    1.379   .     S
C142   H143    0.950   .     S
C142   C149    1.367   .     S
C144   H145    0.950   .     S
C144   C146    1.389   .     S
C146   H147    0.949   .     S
C146   C148    1.385   .     S
C148   C149    1.393   .     S
C148   C151    1.493   .     S
C149   H150    0.949   .     S
C153   H154    0.984   .     S
C153   H155    0.981   .     S
C153   H156    0.980   .     S
C157   H158    0.978   .     S
C157   H159    0.981   .     S
C157   H160    0.979   .     S
Zn161  O163    1.943   .     S
Zn161  O165    1.965   .     S
Zn161  O170    2.006   .     S
Zn161  O646    1.952   .     S
O162   C176    1.240   .     S
O163   C176    1.270   .     S
O164   C231    1.215   .     S
O165   C231    1.283   .     S
O166   C204    1.278   .     S
O166   Zn401   1.952   .     S
O167   C204    1.213   .     S
O168   Zn1443  2.021   .     S
O168   C203    1.108   .     S
O169   C203    1.264   .     S
O170   C232    1.100   .     S
N171   C217    1.391   .     S
N171   C219    1.322   1_565 S
N171   C221    1.436   .     S
N172   C210    1.430   .     S
N172   C215    1.392   .     S
N172   C219    1.340   .     S
N173   C182    1.442   .     S
N173   C187    1.367   .     S
N173   C191    1.323   .     S
N174   C189    1.401   .     S
N174   C193    1.416   1_455 S
N174   C191    1.332   .     S
N175   C232    1.344   .     S
N175   C233    1.479   .     S
N175   C237    1.623   .     S
C176   C177    1.498   .     S
C177   C178    1.396   .     S
C177   C185    1.384   .     S
C178   H179    0.948   .     S
C178   C180    1.374   .     S
C180   H181    0.950   .     S
C180   C182    1.387   .     S
C182   C183    1.350   .     S
C183   H184    0.951   .     S
C183   C185    1.403   .     S
C185   H186    0.951   .     S
C187   H188    0.949   .     S
C187   C189    1.326   .     S
C189   H190    0.949   .     S
C191   H192    0.948   .     S
C193   N174    1.416   1_655 S
C193   C194    1.329   .     S
C193   C201    1.370   .     S
C194   H195    0.950   .     S
C194   C196    1.392   .     S
C196   H197    0.949   .     S
C196   C198    1.264   .     S
C198   C199    1.428   .     S
C198   C203    1.478   .     S
C199   H200    0.951   .     S
C199   C201    1.395   .     S
C201   H202    0.950   .     S
C204   C205    1.500   .     S
C205   C206    1.388   .     S
C205   C213    1.381   1_455 S
C206   H207    0.949   .     S
C206   C208    1.381   1_455 S
C208   C206    1.381   1_655 S
C208   H209    0.950   .     S
C208   C210    1.371   .     S
C210   C211    1.381   .     S
C211   H212    0.950   .     S
C211   C213    1.382   .     S
C213   C205    1.381   1_655 S
C213   H214    0.949   .     S
C215   H216    0.950   1_545 S
C215   C217    1.321   1_545 S
H216   C215    0.950   1_565 S
C217   C215    1.321   1_565 S
C217   H218    0.950   .     S
C219   N171    1.322   1_545 S
C219   H220    0.951   .     S
C221   C222    1.382   .     S
C221   C224    1.379   .     S
C222   H223    0.950   1_565 S
C222   C229    1.367   .     S
H223   C222    0.950   1_545 S
C224   H225    0.950   .     S
C224   C226    1.389   .     S
C226   H227    0.949   .     S
C226   C228    1.385   .     S
C228   C229    1.393   .     S
C228   C231    1.493   .     S
C229   H230    0.949   .     S
C233   H234    0.984   .     S
C233   H235    0.981   .     S
C233   H236    0.980   .     S
C237   H238    0.978   .     S
C237   H239    0.981   .     S
C237   H240    0.979   .     S
Zn241  O243    1.943   .     S
Zn241  O245    1.965   .     S
Zn241  O250    2.006   .     S
O242   C256    1.240   .     S
O243   C256    1.270   .     S
O244   C311    1.215   .     S
O245   C311    1.283   .     S
O246   C284    1.278   .     S
O246   Zn481   1.952   .     S
O247   C284    1.213   .     S
O248   Zn1441  2.021   .     S
O248   C283    1.108   .     S
O249   C283    1.264   .     S
O250   C312    1.100   .     S
N251   C297    1.391   .     S
N251   C299    1.322   .     S
N251   C301    1.436   .     S
N252   C290    1.430   .     S
N252   C295    1.392   .     S
N252   C299    1.340   .     S
N253   C262    1.442   .     S
N253   C267    1.367   .     S
N253   C271    1.323   .     S
N254   C269    1.401   .     S
N254   C273    1.416   .     S
N254   C271    1.332   .     S
N255   C312    1.344   .     S
N255   C313    1.479   .     S
N255   C317    1.623   .     S
C256   C257    1.498   .     S
C257   C258    1.396   .     S
C257   C265    1.384   1_655 S
C258   H259    0.948   .     S
C258   C260    1.374   1_655 S
C260   C258    1.374   1_455 S
C260   H261    0.950   1_455 S
C260   C262    1.387   .     S
H261   C260    0.950   1_655 S
C262   C263    1.350   .     S
C263   H264    0.951   .     S
C263   C265    1.403   .     S
C265   C257    1.384   1_455 S
C265   H266    0.951   .     S
C267   H268    0.949   .     S
C267   C269    1.326   .     S
C269   H270    0.949   .     S
C271   H272    0.948   .     S
C273   C274    1.329   .     S
C273   C281    1.370   .     S
C274   H275    0.950   .     S
C274   C276    1.392   .     S
C276   H277    0.949   .     S
C276   C278    1.264   .     S
C278   C279    1.428   .     S
C278   C283    1.478   .     S
C279   H280    0.951   .     S
C279   C281    1.395   .     S
C281   H282    0.950   .     S
C284   C285    1.500   .     S
C285   C286    1.388   .     S
C285   C293    1.381   .     S
C286   H287    0.949   .     S
C286   C288    1.381   .     S
C288   H289    0.950   .     S
C288   C290    1.371   .     S
C290   C291    1.381   .     S
C291   H292    0.950   1_545 S
C291   C293    1.382   .     S
H292   C291    0.950   1_565 S
C293   H294    0.949   1_545 S
H294   C293    0.949   1_565 S
C295   H296    0.950   .     S
C295   C297    1.321   .     S
C297   H298    0.950   .     S
C299   H300    0.951   1_545 S
H300   C299    0.951   1_565 S
C301   C302    1.382   1_545 S
C301   C304    1.379   .     S
C302   C301    1.382   1_565 S
C302   H303    0.950   .     S
C302   C309    1.367   .     S
C304   H305    0.950   .     S
C304   C306    1.389   .     S
C306   H307    0.949   .     S
C306   C308    1.385   1_545 S
C308   C306    1.385   1_565 S
C308   C309    1.393   .     S
C308   C311    1.493   .     S
C309   H310    0.949   .     S
C313   H314    0.984   .     S
C313   H315    0.981   .     S
C313   H316    0.980   .     S
C317   H318    0.978   .     S
C317   H319    0.981   .     S
C317   H320    0.979   .     S
Zn321  O323    1.943   .     S
Zn321  O325    1.965   .     S
Zn321  O330    2.006   .     S
O322   C336    1.240   .     S
O323   C336    1.270   .     S
O324   C391    1.215   .     S
O325   C391    1.283   .     S
O326   C364    1.278   1_655 S
O326   Zn561   1.952   .     S
O327   C364    1.213   .     S
O328   Zn1442  2.021   1_655 S
O328   C363    1.108   .     S
O329   C363    1.264   .     S
O330   C392    1.100   .     S
N331   C377    1.391   .     S
N331   C379    1.322   .     S
N331   C381    1.436   .     S
N332   C370    1.430   .     S
N332   C375    1.392   .     S
N332   C379    1.340   .     S
N333   C342    1.442   .     S
N333   C347    1.367   .     S
N333   C351    1.323   .     S
N334   C349    1.401   .     S
N334   C353    1.416   .     S
N334   C351    1.332   .     S
N335   C392    1.344   .     S
N335   C393    1.479   .     S
N335   C397    1.623   .     S
C336   C337    1.498   .     S
C337   C338    1.396   .     S
C337   C345    1.384   .     S
C338   H339    0.948   .     S
C338   C340    1.374   .     S
C340   H341    0.950   .     S
C340   C342    1.387   .     S
C342   C343    1.350   .     S
C343   H344    0.951   .     S
C343   C345    1.403   .     S
C345   H346    0.951   .     S
C347   H348    0.949   .     S
C347   C349    1.326   .     S
C349   H350    0.949   .     S
C351   H352    0.948   .     S
C353   C354    1.329   .     S
C353   C361    1.370   .     S
C354   H355    0.950   .     S
C354   C356    1.392   .     S
C356   H357    0.949   .     S
C356   C358    1.264   .     S
C358   C359    1.428   .     S
C358   C363    1.478   .     S
C359   H360    0.951   .     S
C359   C361    1.395   .     S
C361   H362    0.950   .     S
C364   O326    1.278   1_455 S
C364   C365    1.500   .     S
C365   C366    1.388   .     S
C365   C373    1.381   .     S
C366   H367    0.949   .     S
C366   C368    1.381   .     S
C368   H369    0.950   .     S
C368   C370    1.371   .     S
C370   C371    1.381   .     S
C371   H372    0.950   .     S
C371   C373    1.382   .     S
C373   H374    0.949   .     S
C375   H376    0.950   .     S
C375   C377    1.321   .     S
C377   H378    0.950   .     S
C379   H380    0.951   .     S
C381   C382    1.382   .     S
C381   C384    1.379   .     S
C382   H383    0.950   .     S
C382   C389    1.367   .     S
C384   H385    0.950   .     S
C384   C386    1.389   .     S
C386   H387    0.949   .     S
C386   C388    1.385   .     S
C388   C389    1.393   .     S
C388   C391    1.493   .     S
C389   H390    0.949   .     S
C393   H394    0.984   .     S
C393   H395    0.981   .     S
C393   H396    0.980   .     S
C397   H398    0.978   1_545 S
C397   H399    0.981   .     S
C397   H400    0.979   .     S
H398   C397    0.978   1_565 S
Zn401  O403    1.943   .     S
Zn401  O405    1.965   .     S
Zn401  O410    2.006   .     S
O402   C416    1.240   .     S
O403   C416    1.270   .     S
O404   C471    1.215   .     S
O405   C471    1.283   .     S
O406   C444    1.278   .     S
O406   Zn641   1.952   .     S
O407   C444    1.213   .     S
O408   Zn1443  2.021   .     S
O408   C443    1.108   .     S
O409   C443    1.264   .     S
O410   C472    1.100   .     S
N411   C457    1.391   .     S
N411   C459    1.322   1_455 S
N411   C461    1.436   .     S
N412   C450    1.430   .     S
N412   C455    1.392   .     S
N412   C459    1.340   .     S
N413   C422    1.442   .     S
N413   C427    1.367   .     S
N413   C431    1.323   .     S
N414   C429    1.401   .     S
N414   C433    1.416   .     S
N414   C431    1.332   .     S
N415   C472    1.344   .     S
N415   C473    1.479   .     S
N415   C477    1.623   .     S
C416   C417    1.498   .     S
C417   C418    1.396   .     S
C417   C425    1.384   .     S
C418   H419    0.948   .     S
C418   C420    1.374   .     S
C420   H421    0.950   .     S
C420   C422    1.387   .     S
C422   C423    1.350   .     S
C423   H424    0.951   .     S
C423   C425    1.403   .     S
C425   H426    0.951   .     S
C427   H428    0.949   .     S
C427   C429    1.326   .     S
C429   H430    0.949   .     S
C431   H432    0.948   .     S
C433   C434    1.329   .     S
C433   C441    1.370   .     S
C434   H435    0.950   .     S
C434   C436    1.392   .     S
C436   H437    0.949   .     S
C436   C438    1.264   .     S
C438   C439    1.428   .     S
C438   C443    1.478   .     S
C439   H440    0.951   .     S
C439   C441    1.395   .     S
C441   H442    0.950   .     S
C444   C445    1.500   .     S
C445   C446    1.388   .     S
C445   C453    1.381   .     S
C446   H447    0.949   .     S
C446   C448    1.381   .     S
C448   H449    0.950   .     S
C448   C450    1.371   .     S
C450   C451    1.381   .     S
C451   H452    0.950   .     S
C451   C453    1.382   .     S
C453   H454    0.949   .     S
C455   H456    0.950   1_655 S
C455   C457    1.321   1_655 S
H456   C455    0.950   1_455 S
C457   C455    1.321   1_455 S
C457   H458    0.950   .     S
C459   N411    1.322   1_655 S
C459   H460    0.951   .     S
C461   C462    1.382   .     S
C461   C464    1.379   .     S
C462   H463    0.950   1_455 S
C462   C469    1.367   .     S
H463   C462    0.950   1_655 S
C464   H465    0.950   .     S
C464   C466    1.389   .     S
C466   H467    0.949   .     S
C466   C468    1.385   .     S
C468   C469    1.393   .     S
C468   C471    1.493   .     S
C469   H470    0.949   .     S
C473   H474    0.984   .     S
C473   H475    0.981   .     S
C473   H476    0.980   .     S
C477   H478    0.978   .     S
C477   H479    0.981   .     S
C477   H480    0.979   .     S
Zn481  O483    1.943   .     S
Zn481  O485    1.965   1_545 S
Zn481  O490    2.006   .     S
O482   C496    1.240   .     S
O483   C496    1.270   .     S
O484   C551    1.215   .     S
O485   Zn481   1.965   1_565 S
O485   C551    1.283   .     S
O486   C524    1.278   .     S
O487   C524    1.213   .     S
O488   Zn1441  2.021   .     S
O488   C523    1.108   .     S
O489   C523    1.264   .     S
O490   C552    1.100   .     S
N491   C537    1.391   .     S
N491   C539    1.322   .     S
N491   C541    1.436   .     S
N492   C530    1.430   .     S
N492   C535    1.392   .     S
N492   C539    1.340   .     S
N493   C502    1.442   .     S
N493   C507    1.367   .     S
N493   C511    1.323   .     S
N494   C509    1.401   .     S
N494   C513    1.416   .     S
N494   C511    1.332   .     S
N495   C552    1.344   .     S
N495   C553    1.479   .     S
N495   C557    1.623   .     S
C496   C497    1.498   .     S
C497   C498    1.396   .     S
C497   C505    1.384   .     S
C498   H499    0.948   .     S
C498   C500    1.374   .     S
C500   H501    0.950   .     S
C500   C502    1.387   .     S
C502   C503    1.350   .     S
C503   H504    0.951   .     S
C503   C505    1.403   .     S
C505   H506    0.951   .     S
C507   H508    0.949   .     S
C507   C509    1.326   .     S
C509   H510    0.949   .     S
C511   H512    0.948   .     S
C513   C514    1.329   .     S
C513   C521    1.370   .     S
C514   H515    0.950   .     S
C514   C516    1.392   .     S
C516   H517    0.949   .     S
C516   C518    1.264   .     S
C518   C519    1.428   .     S
C518   C523    1.478   .     S
C519   H520    0.951   .     S
C519   C521    1.395   .     S
C521   H522    0.950   .     S
C524   C525    1.500   .     S
C525   C526    1.388   .     S
C525   C533    1.381   .     S
C526   H527    0.949   .     S
C526   C528    1.381   .     S
C528   H529    0.950   .     S
C528   C530    1.371   .     S
C530   C531    1.381   .     S
C531   H532    0.950   1_655 S
C531   C533    1.382   .     S
H532   C531    0.950   1_455 S
C533   H534    0.949   1_655 S
H534   C533    0.949   1_455 S
C535   H536    0.950   .     S
C535   C537    1.321   .     S
C537   H538    0.950   .     S
C539   H540    0.951   1_655 S
H540   C539    0.951   1_455 S
C541   C542    1.382   1_655 S
C541   C544    1.379   .     S
C542   C541    1.382   1_455 S
C542   H543    0.950   .     S
C542   C549    1.367   .     S
C544   H545    0.950   .     S
C544   C546    1.389   .     S
C546   H547    0.949   .     S
C546   C548    1.385   1_655 S
C548   C546    1.385   1_455 S
C548   C549    1.393   .     S
C548   C551    1.493   .     S
C549   H550    0.949   .     S
C553   H554    0.984   .     S
C553   H555    0.981   .     S
C553   H556    0.980   .     S
C557   H558    0.978   .     S
C557   H559    0.981   .     S
C557   H560    0.979   .     S
Zn561  O563    1.943   .     S
Zn561  O565    1.965   .     S
Zn561  O570    2.006   .     S
O562   C576    1.240   .     S
O563   C576    1.270   .     S
O564   C631    1.215   .     S
O565   C631    1.283   .     S
O566   C604    1.278   .     S
O567   C604    1.213   .     S
O568   Zn1442  2.021   1_665 S
O568   C603    1.108   .     S
O569   C603    1.264   .     S
O570   C632    1.100   .     S
N571   C617    1.391   .     S
N571   C619    1.322   .     S
N571   C621    1.436   1_565 S
N572   C610    1.430   .     S
N572   C615    1.392   .     S
N572   C619    1.340   .     S
N573   C582    1.442   .     S
N573   C587    1.367   .     S
N573   C591    1.323   .     S
N574   C589    1.401   .     S
N574   C593    1.416   .     S
N574   C591    1.332   .     S
N575   C632    1.344   .     S
N575   C633    1.479   .     S
N575   C637    1.623   .     S
C576   C577    1.498   .     S
C577   C578    1.396   .     S
C577   C585    1.384   .     S
C578   H579    0.948   .     S
C578   C580    1.374   .     S
C580   H581    0.950   .     S
C580   C582    1.387   .     S
C582   C583    1.350   .     S
C583   H584    0.951   .     S
C583   C585    1.403   .     S
C585   H586    0.951   .     S
C587   H588    0.949   .     S
C587   C589    1.326   .     S
C589   H590    0.949   .     S
C591   H592    0.948   .     S
C593   C594    1.329   .     S
C593   C601    1.370   .     S
C594   H595    0.950   .     S
C594   C596    1.392   .     S
C596   H597    0.949   .     S
C596   C598    1.264   .     S
C598   C599    1.428   .     S
C598   C603    1.478   .     S
C599   H600    0.951   .     S
C599   C601    1.395   .     S
C601   H602    0.950   .     S
C604   C605    1.500   .     S
C605   C606    1.388   .     S
C605   C613    1.381   .     S
C606   H607    0.949   .     S
C606   C608    1.381   .     S
C608   H609    0.950   .     S
C608   C610    1.371   .     S
C610   C611    1.381   .     S
C611   H612    0.950   .     S
C611   C613    1.382   .     S
C613   H614    0.949   .     S
C615   H616    0.950   .     S
C615   C617    1.321   .     S
C617   H618    0.950   .     S
C619   H620    0.951   .     S
C621   N571    1.436   1_545 S
C621   C622    1.382   .     S
C621   C624    1.379   .     S
C622   H623    0.950   .     S
C622   C629    1.367   .     S
C624   H625    0.950   .     S
C624   C626    1.389   .     S
C626   H627    0.949   .     S
C626   C628    1.385   .     S
C628   C629    1.393   .     S
C628   C631    1.493   .     S
C629   H630    0.949   .     S
C633   H634    0.984   .     S
C633   H635    0.981   .     S
C633   H636    0.980   .     S
C637   H638    0.978   1_655 S
C637   H639    0.981   .     S
C637   H640    0.979   .     S
H638   C637    0.978   1_455 S
Zn641  O643    1.943   .     S
Zn641  O645    1.965   .     S
Zn641  O650    2.006   .     S
O642   C656    1.240   .     S
O643   C656    1.270   .     S
O644   C711    1.215   .     S
O645   C711    1.283   .     S
O646   C684    1.278   .     S
O647   C684    1.213   .     S
O648   Zn1443  2.021   .     S
O648   C683    1.108   .     S
O649   C683    1.264   .     S
O650   C712    1.100   .     S
N651   C697    1.391   .     S
N651   C699    1.322   .     S
N651   C701    1.436   .     S
N652   C690    1.430   .     S
N652   C695    1.392   .     S
N652   C699    1.340   .     S
N653   C662    1.442   .     S
N653   C667    1.367   .     S
N653   C671    1.323   .     S
N654   C669    1.401   .     S
N654   C673    1.416   1_565 S
N654   C671    1.332   .     S
N655   C712    1.344   .     S
N655   C713    1.479   .     S
N655   C717    1.623   .     S
C656   C657    1.498   .     S
C657   C658    1.396   .     S
C657   C665    1.384   .     S
C658   H659    0.948   .     S
C658   C660    1.374   .     S
C660   H661    0.950   .     S
C660   C662    1.387   .     S
C662   C663    1.350   .     S
C663   H664    0.951   .     S
C663   C665    1.403   .     S
C665   H666    0.951   .     S
C667   H668    0.949   .     S
C667   C669    1.326   .     S
C669   H670    0.949   .     S
C671   H672    0.948   .     S
C673   N654    1.416   1_545 S
C673   C674    1.329   .     S
C673   C681    1.370   .     S
C674   H675    0.950   .     S
C674   C676    1.392   .     S
C676   H677    0.949   .     S
C676   C678    1.264   .     S
C678   C679    1.428   .     S
C678   C683    1.478   .     S
C679   H680    0.951   .     S
C679   C681    1.395   .     S
C681   H682    0.950   .     S
C684   C685    1.500   .     S
C685   C686    1.388   .     S
C685   C693    1.381   1_565 S
C686   H687    0.949   .     S
C686   C688    1.381   1_565 S
C688   C686    1.381   1_545 S
C688   H689    0.950   .     S
C688   C690    1.371   .     S
C690   C691    1.381   .     S
C691   H692    0.950   .     S
C691   C693    1.382   .     S
C693   C685    1.381   1_545 S
C693   H694    0.949   .     S
C695   H696    0.950   .     S
C695   C697    1.321   .     S
C697   H698    0.950   .     S
C699   H700    0.951   .     S
C701   C702    1.382   .     S
C701   C704    1.379   .     S
C702   H703    0.950   .     S
C702   C709    1.367   .     S
C704   H705    0.950   .     S
C704   C706    1.389   .     S
C706   H707    0.949   .     S
C706   C708    1.385   .     S
C708   C709    1.393   .     S
C708   C711    1.493   .     S
C709   H710    0.949   .     S
C713   H714    0.984   .     S
C713   H715    0.981   .     S
C713   H716    0.980   .     S
C717   H718    0.978   .     S
C717   H719    0.981   .     S
C717   H720    0.979   .     S
Zn721  O723    1.943   .     S
Zn721  O725    1.965   1_455 S
Zn721  O730    2.006   .     S
Zn721  O1206   1.952   .     S
O722   C736    1.240   .     S
O723   C736    1.270   .     S
O724   C791    1.215   .     S
O725   Zn721   1.965   1_655 S
O725   C791    1.283   .     S
O726   C764    1.278   .     S
O726   Zn961   1.952   .     S
O727   C764    1.213   .     S
O728   Zn1444  2.021   .     S
O728   C763    1.108   .     S
O729   C763    1.264   .     S
O730   C792    1.100   .     S
N731   C777    1.391   .     S
N731   C779    1.322   .     S
N731   C781    1.436   .     S
N732   C770    1.430   .     S
N732   C775    1.392   .     S
N732   C779    1.340   .     S
N733   C742    1.442   .     S
N733   C747    1.367   .     S
N733   C751    1.323   .     S
N734   C749    1.401   .     S
N734   C753    1.416   .     S
N734   C751    1.332   .     S
N735   C792    1.344   .     S
N735   C793    1.479   .     S
N735   C797    1.623   .     S
C736   C737    1.498   .     S
C737   C738    1.396   .     S
C737   C745    1.384   1_565 S
C738   H739    0.948   .     S
C738   C740    1.374   1_565 S
C740   C738    1.374   1_545 S
C740   H741    0.950   1_545 S
C740   C742    1.387   .     S
H741   C740    0.950   1_565 S
C742   C743    1.350   .     S
C743   H744    0.951   .     S
C743   C745    1.403   .     S
C745   C737    1.384   1_545 S
C745   H746    0.951   .     S
C747   H748    0.949   .     S
C747   C749    1.326   .     S
C749   H750    0.949   .     S
C751   H752    0.948   .     S
C753   C754    1.329   .     S
C753   C761    1.370   .     S
C754   H755    0.950   .     S
C754   C756    1.392   .     S
C756   H757    0.949   .     S
C756   C758    1.264   .     S
C758   C759    1.428   .     S
C758   C763    1.478   .     S
C759   H760    0.951   .     S
C759   C761    1.395   .     S
C761   H762    0.950   .     S
C764   C765    1.500   .     S
C765   C766    1.388   .     S
C765   C773    1.381   .     S
C766   H767    0.949   .     S
C766   C768    1.381   .     S
C768   H769    0.950   .     S
C768   C770    1.371   .     S
C770   C771    1.381   .     S
C771   H772    0.950   .     S
C771   C773    1.382   .     S
C773   H774    0.949   .     S
C775   H776    0.950   .     S
C775   C777    1.321   .     S
C777   H778    0.950   .     S
C779   H780    0.951   .     S
C781   C782    1.382   .     S
C781   C784    1.379   .     S
C782   H783    0.950   .     S
C782   C789    1.367   .     S
C784   H785    0.950   .     S
C784   C786    1.389   .     S
C786   H787    0.949   .     S
C786   C788    1.385   .     S
C788   C789    1.393   .     S
C788   C791    1.493   .     S
C789   H790    0.949   .     S
C793   H794    0.984   .     S
C793   H795    0.981   .     S
C793   H796    0.980   .     S
C797   H798    0.978   .     S
C797   H799    0.981   .     S
C797   H800    0.979   .     S
Zn801  O803    1.943   .     S
Zn801  O805    1.965   .     S
Zn801  O810    2.006   .     S
Zn801  O1286   1.952   .     S
O802   C816    1.240   .     S
O803   C816    1.270   .     S
O804   C871    1.215   .     S
O805   C871    1.283   .     S
O806   C844    1.278   .     S
O806   Zn1041  1.952   .     S
O807   C844    1.213   .     S
O808   Zn1445  2.021   .     S
O808   C843    1.108   .     S
O809   C843    1.264   .     S
O810   C872    1.100   .     S
N811   C857    1.391   .     S
N811   C859    1.322   1_545 S
N811   C861    1.436   .     S
N812   C850    1.430   .     S
N812   C855    1.392   .     S
N812   C859    1.340   .     S
N813   C822    1.442   .     S
N813   C827    1.367   .     S
N813   C831    1.323   .     S
N814   C829    1.401   .     S
N814   C833    1.416   1_655 S
N814   C831    1.332   .     S
N815   C872    1.344   .     S
N815   C873    1.479   .     S
N815   C877    1.623   .     S
C816   C817    1.498   .     S
C817   C818    1.396   .     S
C817   C825    1.384   .     S
C818   H819    0.948   .     S
C818   C820    1.374   .     S
C820   H821    0.950   .     S
C820   C822    1.387   .     S
C822   C823    1.350   .     S
C823   H824    0.951   .     S
C823   C825    1.403   .     S
C825   H826    0.951   .     S
C827   H828    0.949   .     S
C827   C829    1.326   .     S
C829   H830    0.949   .     S
C831   H832    0.948   .     S
C833   N814    1.416   1_455 S
C833   C834    1.329   .     S
C833   C841    1.370   .     S
C834   H835    0.950   .     S
C834   C836    1.392   .     S
C836   H837    0.949   .     S
C836   C838    1.264   .     S
C838   C839    1.428   .     S
C838   C843    1.478   .     S
C839   H840    0.951   .     S
C839   C841    1.395   .     S
C841   H842    0.950   .     S
C844   C845    1.500   .     S
C845   C846    1.388   .     S
C845   C853    1.381   1_655 S
C846   H847    0.949   .     S
C846   C848    1.381   1_655 S
C848   C846    1.381   1_455 S
C848   H849    0.950   .     S
C848   C850    1.371   .     S
C850   C851    1.381   .     S
C851   H852    0.950   .     S
C851   C853    1.382   .     S
C853   C845    1.381   1_455 S
C853   H854    0.949   .     S
C855   H856    0.950   1_565 S
C855   C857    1.321   1_565 S
H856   C855    0.950   1_545 S
C857   C855    1.321   1_545 S
C857   H858    0.950   .     S
C859   N811    1.322   1_565 S
C859   H860    0.951   .     S
C861   C862    1.382   .     S
C861   C864    1.379   .     S
C862   H863    0.950   1_545 S
C862   C869    1.367   .     S
H863   C862    0.950   1_565 S
C864   H865    0.950   .     S
C864   C866    1.389   .     S
C866   H867    0.949   .     S
C866   C868    1.385   .     S
C868   C869    1.393   .     S
C868   C871    1.493   .     S
C869   H870    0.949   .     S
C873   H874    0.984   .     S
C873   H875    0.981   .     S
C873   H876    0.980   .     S
C877   H878    0.978   .     S
C877   H879    0.981   .     S
C877   H880    0.979   .     S
Zn881  O883    1.943   .     S
Zn881  O885    1.965   .     S
Zn881  O890    2.006   .     S
Zn881  O1366   1.952   .     S
O882   C896    1.240   .     S
O883   C896    1.270   .     S
O884   C951    1.215   .     S
O885   C951    1.283   .     S
O886   C924    1.278   1_565 S
O886   Zn1121  1.952   .     S
O887   C924    1.213   .     S
O888   Zn1446  2.021   1_665 S
O888   C923    1.108   .     S
O889   C923    1.264   .     S
O890   C952    1.100   .     S
N891   C937    1.391   .     S
N891   C939    1.322   .     S
N891   C941    1.436   1_655 S
N892   C930    1.430   .     S
N892   C935    1.392   .     S
N892   C939    1.340   .     S
N893   C902    1.442   .     S
N893   C907    1.367   .     S
N893   C911    1.323   .     S
N894   C909    1.401   .     S
N894   C913    1.416   .     S
N894   C911    1.332   .     S
N895   C952    1.344   .     S
N895   C953    1.479   .     S
N895   C957    1.623   .     S
C896   C897    1.498   .     S
C897   C898    1.396   .     S
C897   C905    1.384   .     S
C898   H899    0.948   .     S
C898   C900    1.374   .     S
C900   H901    0.950   .     S
C900   C902    1.387   .     S
C902   C903    1.350   .     S
C903   H904    0.951   .     S
C903   C905    1.403   .     S
C905   H906    0.951   .     S
C907   H908    0.949   .     S
C907   C909    1.326   .     S
C909   H910    0.949   .     S
C911   H912    0.948   .     S
C913   C914    1.329   .     S
C913   C921    1.370   .     S
C914   H915    0.950   .     S
C914   C916    1.392   .     S
C916   H917    0.949   .     S
C916   C918    1.264   .     S
C918   C919    1.428   .     S
C918   C923    1.478   .     S
C919   H920    0.951   .     S
C919   C921    1.395   .     S
C921   H922    0.950   .     S
C924   O886    1.278   1_545 S
C924   C925    1.500   .     S
C925   C926    1.388   .     S
C925   C933    1.381   .     S
C926   H927    0.949   .     S
C926   C928    1.381   .     S
C928   H929    0.950   .     S
C928   C930    1.371   .     S
C930   C931    1.381   .     S
C931   H932    0.950   .     S
C931   C933    1.382   .     S
C933   H934    0.949   .     S
C935   H936    0.950   .     S
C935   C937    1.321   .     S
C937   H938    0.950   .     S
C939   H940    0.951   .     S
C941   N891    1.436   1_455 S
C941   C942    1.382   .     S
C941   C944    1.379   .     S
C942   H943    0.950   .     S
C942   C949    1.367   .     S
C944   H945    0.950   .     S
C944   C946    1.389   .     S
C946   H947    0.949   .     S
C946   C948    1.385   .     S
C948   C949    1.393   .     S
C948   C951    1.493   .     S
C949   H950    0.949   .     S
C953   H954    0.984   .     S
C953   H955    0.981   .     S
C953   H956    0.980   .     S
C957   H958    0.978   .     S
C957   H959    0.981   .     S
C957   H960    0.979   .     S
Zn961  O963    1.943   .     S
Zn961  O965    1.965   .     S
Zn961  O970    2.006   .     S
O962   C976    1.240   .     S
O963   C976    1.270   .     S
O964   C1031   1.215   .     S
O965   C1031   1.283   .     S
O966   C1004   1.278   .     S
O966   Zn1201  1.952   .     S
O967   C1004   1.213   .     S
O968   Zn1444  2.021   .     S
O968   C1003   1.108   .     S
O969   C1003   1.264   .     S
O970   C1032   1.100   .     S
N971   C1017   1.391   .     S
N971   C1019   1.322   .     S
N971   C1021   1.436   .     S
N972   C1010   1.430   .     S
N972   C1015   1.392   .     S
N972   C1019   1.340   .     S
N973   C982    1.442   .     S
N973   C987    1.367   .     S
N973   C991    1.323   .     S
N974   C989    1.401   .     S
N974   C993    1.416   .     S
N974   C991    1.332   .     S
N975   C1032   1.344   .     S
N975   C1033   1.479   .     S
N975   C1037   1.623   .     S
C976   C977    1.498   .     S
C977   C978    1.396   .     S
C977   C985    1.384   1_455 S
C978   H979    0.948   .     S
C978   C980    1.374   .     S
C980   H981    0.950   .     S
C980   C982    1.387   1_455 S
C982   C980    1.387   1_655 S
C982   C983    1.350   .     S
C983   H984    0.951   .     S
C983   C985    1.403   .     S
C985   C977    1.384   1_655 S
C985   H986    0.951   .     S
C987   H988    0.949   .     S
C987   C989    1.326   .     S
C989   H990    0.949   .     S
C991   H992    0.948   .     S
C993   C994    1.329   .     S
C993   C1001   1.370   .     S
C994   H995    0.950   .     S
C994   C996    1.392   .     S
C996   H997    0.949   .     S
C996   C998    1.264   .     S
C998   C999    1.428   .     S
C998   C1003   1.478   .     S
C999   H1000   0.951   .     S
C999   C1001   1.395   .     S
C1001  H1002   0.950   .     S
C1004  C1005   1.500   .     S
C1005  C1006   1.388   .     S
C1005  C1013   1.381   .     S
C1006  H1007   0.949   .     S
C1006  C1008   1.381   .     S
C1008  H1009   0.950   .     S
C1008  C1010   1.371   .     S
C1010  C1011   1.381   .     S
C1011  H1012   0.950   1_565 S
C1011  C1013   1.382   .     S
H1012  C1011   0.950   1_545 S
C1013  H1014   0.949   1_565 S
H1014  C1013   0.949   1_545 S
C1015  H1016   0.950   .     S
C1015  C1017   1.321   .     S
C1017  H1018   0.950   .     S
C1019  H1020   0.951   1_565 S
H1020  C1019   0.951   1_545 S
C1021  C1022   1.382   1_565 S
C1021  C1024   1.379   .     S
C1022  C1021   1.382   1_545 S
C1022  H1023   0.950   .     S
C1022  C1029   1.367   .     S
C1024  H1025   0.950   .     S
C1024  C1026   1.389   .     S
C1026  H1027   0.949   .     S
C1026  C1028   1.385   1_565 S
C1028  C1026   1.385   1_545 S
C1028  C1029   1.393   .     S
C1028  C1031   1.493   .     S
C1029  H1030   0.949   .     S
C1033  H1034   0.984   .     S
C1033  H1035   0.981   .     S
C1033  H1036   0.980   .     S
C1037  H1038   0.978   .     S
C1037  H1039   0.981   .     S
C1037  H1040   0.979   .     S
Zn1041 O1043   1.943   .     S
Zn1041 O1045   1.965   .     S
Zn1041 O1050   2.006   .     S
O1042  C1056   1.240   .     S
O1043  C1056   1.270   .     S
O1044  C1111   1.215   .     S
O1045  C1111   1.283   .     S
O1046  C1084   1.278   .     S
O1046  Zn1281  1.952   .     S
O1047  C1084   1.213   .     S
O1048  Zn1445  2.021   .     S
O1048  C1083   1.108   .     S
O1049  C1083   1.264   .     S
O1050  C1112   1.100   .     S
N1051  C1097   1.391   .     S
N1051  C1099   1.322   1_655 S
N1051  C1101   1.436   .     S
N1052  C1090   1.430   .     S
N1052  C1095   1.392   .     S
N1052  C1099   1.340   .     S
N1053  C1062   1.442   .     S
N1053  C1067   1.367   .     S
N1053  C1071   1.323   .     S
N1054  C1069   1.401   .     S
N1054  C1073   1.416   .     S
N1054  C1071   1.332   .     S
N1055  C1112   1.344   .     S
N1055  C1113   1.479   .     S
N1055  C1117   1.623   .     S
C1056  C1057   1.498   .     S
C1057  C1058   1.396   .     S
C1057  C1065   1.384   .     S
C1058  H1059   0.948   .     S
C1058  C1060   1.374   .     S
C1060  H1061   0.950   .     S
C1060  C1062   1.387   .     S
C1062  C1063   1.350   .     S
C1063  H1064   0.951   .     S
C1063  C1065   1.403   .     S
C1065  H1066   0.951   .     S
C1067  H1068   0.949   .     S
C1067  C1069   1.326   .     S
C1069  H1070   0.949   .     S
C1071  H1072   0.948   .     S
C1073  C1074   1.329   .     S
C1073  C1081   1.370   .     S
C1074  H1075   0.950   .     S
C1074  C1076   1.392   .     S
C1076  H1077   0.949   .     S
C1076  C1078   1.264   .     S
C1078  C1079   1.428   .     S
C1078  C1083   1.478   .     S
C1079  H1080   0.951   .     S
C1079  C1081   1.395   .     S
C1081  H1082   0.950   .     S
C1084  C1085   1.500   .     S
C1085  C1086   1.388   .     S
C1085  C1093   1.381   .     S
C1086  H1087   0.949   .     S
C1086  C1088   1.381   .     S
C1088  H1089   0.950   .     S
C1088  C1090   1.371   .     S
C1090  C1091   1.381   .     S
C1091  H1092   0.950   .     S
C1091  C1093   1.382   .     S
C1093  H1094   0.949   .     S
C1095  H1096   0.950   1_455 S
C1095  C1097   1.321   1_455 S
H1096  C1095   0.950   1_655 S
C1097  C1095   1.321   1_655 S
C1097  H1098   0.950   .     S
C1099  N1051   1.322   1_455 S
C1099  H1100   0.951   .     S
C1101  C1102   1.382   .     S
C1101  C1104   1.379   .     S
C1102  H1103   0.950   1_655 S
C1102  C1109   1.367   .     S
H1103  C1102   0.950   1_455 S
C1104  H1105   0.950   .     S
C1104  C1106   1.389   .     S
C1106  H1107   0.949   .     S
C1106  C1108   1.385   .     S
C1108  C1109   1.393   .     S
C1108  C1111   1.493   .     S
C1109  H1110   0.949   .     S
C1113  H1114   0.984   .     S
C1113  H1115   0.981   .     S
C1113  H1116   0.980   .     S
C1117  H1118   0.978   .     S
C1117  H1119   0.981   .     S
C1117  H1120   0.979   .     S
Zn1121 O1123   1.943   .     S
Zn1121 O1125   1.965   .     S
Zn1121 O1130   2.006   .     S
O1122  C1136   1.240   .     S
O1123  C1136   1.270   .     S
O1124  C1191   1.215   .     S
O1125  C1191   1.283   .     S
O1126  C1164   1.278   1_455 S
O1126  Zn1361  1.952   .     S
O1127  C1164   1.213   .     S
O1128  Zn1446  2.021   1_565 S
O1128  C1163   1.108   .     S
O1129  C1163   1.264   .     S
O1130  C1192   1.100   .     S
N1131  C1177   1.391   .     S
N1131  C1179   1.322   .     S
N1131  C1181   1.436   .     S
N1132  C1170   1.430   .     S
N1132  C1175   1.392   .     S
N1132  C1179   1.340   .     S
N1133  C1142   1.442   .     S
N1133  C1147   1.367   .     S
N1133  C1151   1.323   .     S
N1134  C1149   1.401   .     S
N1134  C1153   1.416   .     S
N1134  C1151   1.332   .     S
N1135  C1192   1.344   .     S
N1135  C1193   1.479   .     S
N1135  C1197   1.623   .     S
C1136  C1137   1.498   .     S
C1137  C1138   1.396   .     S
C1137  C1145   1.384   .     S
C1138  H1139   0.948   .     S
C1138  C1140   1.374   .     S
C1140  H1141   0.950   .     S
C1140  C1142   1.387   .     S
C1142  C1143   1.350   .     S
C1143  H1144   0.951   .     S
C1143  C1145   1.403   .     S
C1145  H1146   0.951   .     S
C1147  H1148   0.949   .     S
C1147  C1149   1.326   .     S
C1149  H1150   0.949   .     S
C1151  H1152   0.948   .     S
C1153  C1154   1.329   .     S
C1153  C1161   1.370   .     S
C1154  H1155   0.950   .     S
C1154  C1156   1.392   .     S
C1156  H1157   0.949   .     S
C1156  C1158   1.264   .     S
C1158  C1159   1.428   .     S
C1158  C1163   1.478   .     S
C1159  H1160   0.951   .     S
C1159  C1161   1.395   .     S
C1161  H1162   0.950   .     S
C1164  O1126   1.278   1_655 S
C1164  C1165   1.500   .     S
C1165  C1166   1.388   .     S
C1165  C1173   1.381   .     S
C1166  H1167   0.949   .     S
C1166  C1168   1.381   .     S
C1168  H1169   0.950   .     S
C1168  C1170   1.371   .     S
C1170  C1171   1.381   .     S
C1171  H1172   0.950   .     S
C1171  C1173   1.382   .     S
C1173  H1174   0.949   .     S
C1175  H1176   0.950   .     S
C1175  C1177   1.321   .     S
C1177  H1178   0.950   .     S
C1179  H1180   0.951   .     S
C1181  C1182   1.382   .     S
C1181  C1184   1.379   .     S
C1182  H1183   0.950   .     S
C1182  C1189   1.367   .     S
C1184  H1185   0.950   .     S
C1184  C1186   1.389   .     S
C1186  H1187   0.949   .     S
C1186  C1188   1.385   .     S
C1188  C1189   1.393   .     S
C1188  C1191   1.493   .     S
C1189  H1190   0.949   .     S
C1193  H1194   0.984   .     S
C1193  H1195   0.981   .     S
C1193  H1196   0.980   .     S
C1197  H1198   0.978   1_565 S
C1197  H1199   0.981   .     S
C1197  H1200   0.979   .     S
H1198  C1197   0.978   1_545 S
Zn1201 O1203   1.943   .     S
Zn1201 O1205   1.965   1_565 S
Zn1201 O1210   2.006   .     S
O1202  C1216   1.240   .     S
O1203  C1216   1.270   .     S
O1204  C1271   1.215   .     S
O1205  Zn1201  1.965   1_545 S
O1205  C1271   1.283   .     S
O1206  C1244   1.278   .     S
O1207  C1244   1.213   .     S
O1208  Zn1444  2.021   .     S
O1208  C1243   1.108   .     S
O1209  C1243   1.264   .     S
O1210  C1272   1.100   .     S
N1211  C1257   1.391   .     S
N1211  C1259   1.322   .     S
N1211  C1261   1.436   .     S
N1212  C1250   1.430   .     S
N1212  C1255   1.392   .     S
N1212  C1259   1.340   .     S
N1213  C1222   1.442   .     S
N1213  C1227   1.367   .     S
N1213  C1231   1.323   .     S
N1214  C1229   1.401   .     S
N1214  C1233   1.416   .     S
N1214  C1231   1.332   .     S
N1215  C1272   1.344   .     S
N1215  C1273   1.479   .     S
N1215  C1277   1.623   .     S
C1216  C1217   1.498   .     S
C1217  C1218   1.396   .     S
C1217  C1225   1.384   .     S
C1218  H1219   0.948   .     S
C1218  C1220   1.374   .     S
C1220  H1221   0.950   .     S
C1220  C1222   1.387   .     S
C1222  C1223   1.350   .     S
C1223  H1224   0.951   .     S
C1223  C1225   1.403   .     S
C1225  H1226   0.951   .     S
C1227  H1228   0.949   .     S
C1227  C1229   1.326   .     S
C1229  H1230   0.949   .     S
C1231  H1232   0.948   .     S
C1233  C1234   1.329   .     S
C1233  C1241   1.370   .     S
C1234  H1235   0.950   .     S
C1234  C1236   1.392   .     S
C1236  H1237   0.949   .     S
C1236  C1238   1.264   .     S
C1238  C1239   1.428   .     S
C1238  C1243   1.478   .     S
C1239  H1240   0.951   .     S
C1239  C1241   1.395   .     S
C1241  H1242   0.950   .     S
C1244  C1245   1.500   .     S
C1245  C1246   1.388   .     S
C1245  C1253   1.381   .     S
C1246  H1247   0.949   .     S
C1246  C1248   1.381   .     S
C1248  H1249   0.950   .     S
C1248  C1250   1.371   .     S
C1250  C1251   1.381   .     S
C1251  H1252   0.950   1_455 S
C1251  C1253   1.382   .     S
H1252  C1251   0.950   1_655 S
C1253  H1254   0.949   1_455 S
H1254  C1253   0.949   1_655 S
C1255  H1256   0.950   .     S
C1255  C1257   1.321   .     S
C1257  H1258   0.950   .     S
C1259  H1260   0.951   1_455 S
H1260  C1259   0.951   1_655 S
C1261  C1262   1.382   1_455 S
C1261  C1264   1.379   .     S
C1262  C1261   1.382   1_655 S
C1262  H1263   0.950   .     S
C1262  C1269   1.367   .     S
C1264  H1265   0.950   .     S
C1264  C1266   1.389   .     S
C1266  H1267   0.949   .     S
C1266  C1268   1.385   1_455 S
C1268  C1266   1.385   1_655 S
C1268  C1269   1.393   .     S
C1268  C1271   1.493   .     S
C1269  H1270   0.949   .     S
C1273  H1274   0.984   .     S
C1273  H1275   0.981   .     S
C1273  H1276   0.980   .     S
C1277  H1278   0.978   .     S
C1277  H1279   0.981   .     S
C1277  H1280   0.979   .     S
Zn1281 O1283   1.943   .     S
Zn1281 O1285   1.965   .     S
Zn1281 O1290   2.006   .     S
O1282  C1296   1.240   .     S
O1283  C1296   1.270   .     S
O1284  C1351   1.215   .     S
O1285  C1351   1.283   .     S
O1286  C1324   1.278   .     S
O1287  C1324   1.213   .     S
O1288  Zn1445  2.021   .     S
O1288  C1323   1.108   .     S
O1289  C1323   1.264   .     S
O1290  C1352   1.100   .     S
N1291  C1337   1.391   .     S
N1291  C1339   1.322   .     S
N1291  C1341   1.436   .     S
N1292  C1330   1.430   .     S
N1292  C1335   1.392   .     S
N1292  C1339   1.340   .     S
N1293  C1302   1.442   .     S
N1293  C1307   1.367   .     S
N1293  C1311   1.323   .     S
N1294  C1309   1.401   .     S
N1294  C1313   1.416   1_545 S
N1294  C1311   1.332   .     S
N1295  C1352   1.344   .     S
N1295  C1353   1.479   .     S
N1295  C1357   1.623   .     S
C1296  C1297   1.498   .     S
C1297  C1298   1.396   .     S
C1297  C1305   1.384   .     S
C1298  H1299   0.948   .     S
C1298  C1300   1.374   .     S
C1300  H1301   0.950   .     S
C1300  C1302   1.387   .     S
C1302  C1303   1.350   .     S
C1303  H1304   0.951   .     S
C1303  C1305   1.403   .     S
C1305  H1306   0.951   .     S
C1307  H1308   0.949   .     S
C1307  C1309   1.326   .     S
C1309  H1310   0.949   .     S
C1311  H1312   0.948   .     S
C1313  N1294   1.416   1_565 S
C1313  C1314   1.329   .     S
C1313  C1321   1.370   .     S
C1314  H1315   0.950   .     S
C1314  C1316   1.392   .     S
C1316  H1317   0.949   .     S
C1316  C1318   1.264   .     S
C1318  C1319   1.428   .     S
C1318  C1323   1.478   .     S
C1319  H1320   0.951   .     S
C1319  C1321   1.395   .     S
C1321  H1322   0.950   .     S
C1324  C1325   1.500   .     S
C1325  C1326   1.388   .     S
C1325  C1333   1.381   1_545 S
C1326  H1327   0.949   .     S
C1326  C1328   1.381   1_545 S
C1328  C1326   1.381   1_565 S
C1328  H1329   0.950   .     S
C1328  C1330   1.371   .     S
C1330  C1331   1.381   .     S
C1331  H1332   0.950   .     S
C1331  C1333   1.382   .     S
C1333  C1325   1.381   1_565 S
C1333  H1334   0.949   .     S
C1335  H1336   0.950   .     S
C1335  C1337   1.321   .     S
C1337  H1338   0.950   .     S
C1339  H1340   0.951   .     S
C1341  C1342   1.382   .     S
C1341  C1344   1.379   .     S
C1342  H1343   0.950   .     S
C1342  C1349   1.367   .     S
C1344  H1345   0.950   .     S
C1344  C1346   1.389   .     S
C1346  H1347   0.949   .     S
C1346  C1348   1.385   .     S
C1348  C1349   1.393   .     S
C1348  C1351   1.493   .     S
C1349  H1350   0.949   .     S
C1353  H1354   0.984   .     S
C1353  H1355   0.981   .     S
C1353  H1356   0.980   .     S
C1357  H1358   0.978   .     S
C1357  H1359   0.981   .     S
C1357  H1360   0.979   .     S
Zn1361 O1363   1.943   .     S
Zn1361 O1365   1.965   .     S
Zn1361 O1370   2.006   .     S
O1362  C1376   1.240   .     S
O1363  C1376   1.270   .     S
O1364  C1431   1.215   .     S
O1365  C1431   1.283   .     S
O1366  C1404   1.278   .     S
O1367  C1404   1.213   .     S
O1368  Zn1446  2.021   .     S
O1368  C1403   1.108   .     S
O1369  C1403   1.264   .     S
O1370  C1432   1.100   .     S
N1371  C1417   1.391   .     S
N1371  C1419   1.322   .     S
N1371  C1421   1.436   1_545 S
N1372  C1410   1.430   .     S
N1372  C1415   1.392   .     S
N1372  C1419   1.340   .     S
N1373  C1382   1.442   .     S
N1373  C1387   1.367   .     S
N1373  C1391   1.323   .     S
N1374  C1389   1.401   .     S
N1374  C1393   1.416   .     S
N1374  C1391   1.332   .     S
N1375  C1432   1.344   .     S
N1375  C1433   1.479   .     S
N1375  C1437   1.623   .     S
C1376  C1377   1.498   .     S
C1377  C1378   1.396   .     S
C1377  C1385   1.384   .     S
C1378  H1379   0.948   .     S
C1378  C1380   1.374   .     S
C1380  H1381   0.950   .     S
C1380  C1382   1.387   .     S
C1382  C1383   1.350   .     S
C1383  H1384   0.951   .     S
C1383  C1385   1.403   .     S
C1385  H1386   0.951   .     S
C1387  H1388   0.949   .     S
C1387  C1389   1.326   .     S
C1389  H1390   0.949   .     S
C1391  H1392   0.948   .     S
C1393  C1394   1.329   .     S
C1393  C1401   1.370   .     S
C1394  H1395   0.950   .     S
C1394  C1396   1.392   .     S
C1396  H1397   0.949   .     S
C1396  C1398   1.264   .     S
C1398  C1399   1.428   .     S
C1398  C1403   1.478   .     S
C1399  H1400   0.951   .     S
C1399  C1401   1.395   .     S
C1401  H1402   0.950   .     S
C1404  C1405   1.500   .     S
C1405  C1406   1.388   .     S
C1405  C1413   1.381   .     S
C1406  H1407   0.949   .     S
C1406  C1408   1.381   .     S
C1408  H1409   0.950   .     S
C1408  C1410   1.371   .     S
C1410  C1411   1.381   .     S
C1411  H1412   0.950   .     S
C1411  C1413   1.382   .     S
C1413  H1414   0.949   .     S
C1415  H1416   0.950   .     S
C1415  C1417   1.321   .     S
C1417  H1418   0.950   .     S
C1419  H1420   0.951   .     S
C1421  N1371   1.436   1_565 S
C1421  C1422   1.382   .     S
C1421  C1424   1.379   .     S
C1422  H1423   0.950   .     S
C1422  C1429   1.367   .     S
C1424  H1425   0.950   .     S
C1424  C1426   1.389   .     S
C1426  H1427   0.949   .     S
C1426  C1428   1.385   .     S
C1428  C1429   1.393   .     S
C1428  C1431   1.493   .     S
C1429  H1430   0.949   .     S
C1433  H1434   0.984   .     S
C1433  H1435   0.981   .     S
C1433  H1436   0.980   .     S
C1437  H1438   0.978   1_455 S
C1437  H1439   0.981   .     S
C1437  H1440   0.979   .     S
H1438  C1437   0.978   1_655 S
Zn1441 O1447   1.829   .     S
Zn1442 O328    2.021   1_455 S
Zn1442 O568    2.021   1_445 S
Zn1442 O1448   1.829   .     S
Zn1443 O1449   1.829   .     S
Zn1444 O1449   1.829   .     S
Zn1445 O1447   1.829   .     S
Zn1446 O888    2.021   1_445 S
Zn1446 O1128   2.021   1_545 S
Zn1446 O1448   1.829   .     S
