data_KETGEZ_FSR
_audit_creation_date              2024-06-11
_audit_creation_method            'Materials Studio'
_symmetry_space_group_name_H-M    'P1'
_symmetry_Int_Tables_number       1
_symmetry_cell_setting            triclinic
loop_
_symmetry_equiv_pos_as_xyz
  x,y,z
_cell_length_a                    19.5867
_cell_length_b                    19.5867
_cell_length_c                    14.4855
_cell_angle_alpha                 90.0000
_cell_angle_beta                  90.0000
_cell_angle_gamma                 120.0000
loop_
_atom_site_label
_atom_site_type_symbol
_atom_site_fract_x
_atom_site_fract_y
_atom_site_fract_z
_atom_site_U_iso_or_equiv
_atom_site_adp_type
_atom_site_occupancy
O1     O     0.34944   0.88069   0.28477   0.04756  Uani   1.00
O2     O     0.23329   0.78883   0.34106   0.05877  Uani   1.00
O3     O     0.11240   0.78493   0.39829   0.06113  Uani   1.00
H4     H     0.15400   0.78730   0.38400   0.09200  Uiso   1.00
O5     O     0.07475   0.86996   0.43850   0.08098  Uani   1.00
N6     N     0.32983   0.99983   0.34714   0.03827  Uani   1.00
N7     N     0.22443   0.99724   0.40252   0.05093  Uani   1.00
H8     H     0.19390   0.01340   0.42370   0.06100  Uiso   1.00
N9     N     0.44465   0.37608   0.38420   0.04616  Uani   1.00
N10    N     0.52187   0.49986   0.34441   0.04600  Uani   1.00
C11    C     0.12423   0.85516   0.41100   0.05466  Uani   1.00
C12    C     0.20474   0.92070   0.39045   0.04397  Uani   1.00
C13    C     0.27074   0.92267   0.35581   0.03834  Uani   1.00
C14    C     0.28564   0.85982   0.32534   0.04378  Uani   1.00
C15    C     0.30000   0.04354   0.37562   0.03961  Uani   1.00
C16    C     0.33898   0.12977   0.37721   0.04209  Uani   1.00
C17    C     0.29477   0.16610   0.36330   0.05062  Uani   1.00
H18    H     0.24100   0.13560   0.35200   0.06100  Uiso   1.00
C19    C     0.32974   0.24715   0.36620   0.05291  Uani   1.00
H20    H     0.29990   0.27130   0.35630   0.06400  Uiso   1.00
C21    C     0.40967   0.29207   0.38370   0.04447  Uani   1.00
C22    C     0.45501   0.25708   0.39760   0.04990  Uani   1.00
H23    H     0.50880   0.28770   0.40930   0.06000  Uiso   1.00
C24    C     0.41938   0.17578   0.39400   0.04763  Uani   1.00
H25    H     0.44950   0.15170   0.40290   0.05700  Uiso   1.00
C26    C     0.41024   0.41785   0.41730   0.05447  Uani   1.00
H27    H     0.36310   0.39780   0.44970   0.06500  Uiso   1.00
C28    C     0.45853   0.49341   0.39300   0.05393  Uani   1.00
H29    H     0.45030   0.53510   0.40700   0.06500  Uiso   1.00
C30    C     0.51155   0.42841   0.34080   0.04776  Uani   1.00
H31    H     0.54600   0.41550   0.31200   0.05700  Uiso   1.00
O32    O     0.11931   0.46875   0.28477   0.04756  Uani   1.00
O33    O     0.21117   0.44446   0.34106   0.05877  Uani   1.00
O34    O     0.21507   0.32747   0.39829   0.06113  Uani   1.00
H35    H     0.21270   0.36670   0.38400   0.09200  Uiso   1.00
O36    O     0.13004   0.20479   0.43850   0.08098  Uani   1.00
N37    N     0.00017   0.33000   0.34714   0.03827  Uani   1.00
N38    N     0.00276   0.22719   0.40252   0.05093  Uani   1.00
H39    H     0.98660   0.18050   0.42370   0.06100  Uiso   1.00
N40    N     0.62392   0.06857   0.38420   0.04616  Uani   1.00
N41    N     0.50014   0.02201   0.34441   0.04600  Uani   1.00
C42    C     0.14484   0.26907   0.41100   0.05466  Uani   1.00
C43    C     0.07930   0.28404   0.39045   0.04397  Uani   1.00
C44    C     0.07733   0.34807   0.35581   0.03834  Uani   1.00
C45    C     0.14018   0.42582   0.32534   0.04378  Uani   1.00
C46    C     0.95646   0.25646   0.37562   0.03961  Uani   1.00
C47    C     0.87023   0.20921   0.37721   0.04209  Uani   1.00
C48    C     0.83390   0.12867   0.36330   0.05062  Uani   1.00
H49    H     0.86440   0.10540   0.35200   0.06100  Uiso   1.00
C50    C     0.75285   0.08259   0.36620   0.05291  Uani   1.00
H51    H     0.72870   0.02860   0.35630   0.06400  Uiso   1.00
C52    C     0.70793   0.11760   0.38370   0.04447  Uani   1.00
C53    C     0.74292   0.19793   0.39760   0.04990  Uani   1.00
H54    H     0.71230   0.22110   0.40930   0.06000  Uiso   1.00
C55    C     0.82422   0.24360   0.39400   0.04763  Uani   1.00
H56    H     0.84830   0.29780   0.40290   0.05700  Uiso   1.00
C57    C     0.58215   0.99239   0.41730   0.05447  Uani   1.00
H58    H     0.60220   0.96530   0.44970   0.06500  Uiso   1.00
C59    C     0.50659   0.96512   0.39300   0.05393  Uani   1.00
H60    H     0.46490   0.91520   0.40700   0.06500  Uiso   1.00
C61    C     0.57159   0.08314   0.34080   0.04776  Uani   1.00
H62    H     0.58450   0.13050   0.31200   0.05700  Uiso   1.00
O63    O     0.53125   0.65056   0.28477   0.04756  Uani   1.00
O64    O     0.55554   0.76671   0.34106   0.05877  Uani   1.00
O65    O     0.67253   0.88760   0.39829   0.06113  Uani   1.00
H66    H     0.63330   0.84600   0.38400   0.09200  Uiso   1.00
O67    O     0.79521   0.92525   0.43850   0.08098  Uani   1.00
N68    N     0.67000   0.67017   0.34714   0.03827  Uani   1.00
N69    N     0.77281   0.77557   0.40252   0.05093  Uani   1.00
H70    H     0.81950   0.80610   0.42370   0.06100  Uiso   1.00
N71    N     0.93143   0.55535   0.38420   0.04616  Uani   1.00
N72    N     0.97799   0.47813   0.34441   0.04600  Uani   1.00
C73    C     0.73093   0.87577   0.41100   0.05466  Uani   1.00
C74    C     0.71596   0.79526   0.39045   0.04397  Uani   1.00
C75    C     0.65193   0.72926   0.35581   0.03834  Uani   1.00
C76    C     0.57418   0.71436   0.32534   0.04378  Uani   1.00
C77    C     0.74354   0.70000   0.37562   0.03961  Uani   1.00
C78    C     0.79079   0.66102   0.37721   0.04209  Uani   1.00
C79    C     0.87133   0.70523   0.36330   0.05062  Uani   1.00
H80    H     0.89460   0.75900   0.35200   0.06100  Uiso   1.00
C81    C     0.91741   0.67026   0.36620   0.05291  Uani   1.00
H82    H     0.97140   0.70010   0.35630   0.06400  Uiso   1.00
C83    C     0.88240   0.59033   0.38370   0.04447  Uani   1.00
C84    C     0.80207   0.54499   0.39760   0.04990  Uani   1.00
H85    H     0.77890   0.49120   0.40930   0.06000  Uiso   1.00
C86    C     0.75640   0.58062   0.39400   0.04763  Uani   1.00
H87    H     0.70220   0.55050   0.40290   0.05700  Uiso   1.00
C88    C     0.00761   0.58976   0.41730   0.05447  Uani   1.00
H89    H     0.03470   0.63690   0.44970   0.06500  Uiso   1.00
C90    C     0.03488   0.54147   0.39300   0.05393  Uani   1.00
H91    H     0.08480   0.54970   0.40700   0.06500  Uiso   1.00
C92    C     0.91686   0.48845   0.34080   0.04776  Uani   1.00
H93    H     0.86950   0.45400   0.31200   0.05700  Uiso   1.00
O94    O     0.88069   0.34944   0.21523   0.04756  Uani   1.00
O95    O     0.78883   0.23329   0.15894   0.05877  Uani   1.00
O96    O     0.78493   0.11240   0.10171   0.06113  Uani   1.00
H97    H     0.78730   0.15400   0.11600   0.09200  Uiso   1.00
O98    O     0.86996   0.07475   0.06150   0.08098  Uani   1.00
N99    N     0.99983   0.32983   0.15286   0.03827  Uani   1.00
N100   N     0.99724   0.22443   0.09748   0.05093  Uani   1.00
H101   H     0.01340   0.19390   0.07630   0.06100  Uiso   1.00
N102   N     0.37608   0.44465   0.11580   0.04616  Uani   1.00
N103   N     0.49986   0.52187   0.15559   0.04600  Uani   1.00
C104   C     0.85516   0.12423   0.08900   0.05466  Uani   1.00
C105   C     0.92070   0.20474   0.10955   0.04397  Uani   1.00
C106   C     0.92267   0.27074   0.14419   0.03834  Uani   1.00
C107   C     0.85982   0.28564   0.17466   0.04378  Uani   1.00
C108   C     0.04354   0.30000   0.12438   0.03961  Uani   1.00
C109   C     0.12977   0.33898   0.12279   0.04209  Uani   1.00
C110   C     0.16610   0.29477   0.13670   0.05062  Uani   1.00
H111   H     0.13560   0.24100   0.14800   0.06100  Uiso   1.00
C112   C     0.24715   0.32974   0.13380   0.05291  Uani   1.00
H113   H     0.27130   0.29990   0.14370   0.06400  Uiso   1.00
C114   C     0.29207   0.40967   0.11630   0.04447  Uani   1.00
C115   C     0.25708   0.45501   0.10240   0.04990  Uani   1.00
H116   H     0.28770   0.50880   0.09070   0.06000  Uiso   1.00
C117   C     0.17578   0.41938   0.10600   0.04763  Uani   1.00
H118   H     0.15170   0.44950   0.09710   0.05700  Uiso   1.00
C119   C     0.41785   0.41024   0.08270   0.05447  Uani   1.00
H120   H     0.39780   0.36310   0.05030   0.06500  Uiso   1.00
C121   C     0.49341   0.45853   0.10700   0.05393  Uani   1.00
H122   H     0.53510   0.45030   0.09300   0.06500  Uiso   1.00
C123   C     0.42841   0.51155   0.15920   0.04776  Uani   1.00
H124   H     0.41550   0.54600   0.18800   0.05700  Uiso   1.00
O125   O     0.46875   0.11931   0.21523   0.04756  Uani   1.00
O126   O     0.44446   0.21117   0.15894   0.05877  Uani   1.00
O127   O     0.32747   0.21507   0.10171   0.06113  Uani   1.00
H128   H     0.36670   0.21270   0.11600   0.09200  Uiso   1.00
O129   O     0.20479   0.13004   0.06150   0.08098  Uani   1.00
N130   N     0.33000   0.00017   0.15286   0.03827  Uani   1.00
N131   N     0.22719   0.00276   0.09748   0.05093  Uani   1.00
H132   H     0.18050   0.98660   0.07630   0.06100  Uiso   1.00
N133   N     0.06857   0.62392   0.11580   0.04616  Uani   1.00
N134   N     0.02201   0.50014   0.15559   0.04600  Uani   1.00
C135   C     0.26907   0.14484   0.08900   0.05466  Uani   1.00
C136   C     0.28404   0.07930   0.10955   0.04397  Uani   1.00
C137   C     0.34807   0.07733   0.14419   0.03834  Uani   1.00
C138   C     0.42582   0.14018   0.17466   0.04378  Uani   1.00
C139   C     0.25646   0.95646   0.12438   0.03961  Uani   1.00
C140   C     0.20921   0.87023   0.12279   0.04209  Uani   1.00
C141   C     0.12867   0.83390   0.13670   0.05062  Uani   1.00
H142   H     0.10540   0.86440   0.14800   0.06100  Uiso   1.00
C143   C     0.08259   0.75285   0.13380   0.05291  Uani   1.00
H144   H     0.02860   0.72870   0.14370   0.06400  Uiso   1.00
C145   C     0.11760   0.70793   0.11630   0.04447  Uani   1.00
C146   C     0.19793   0.74292   0.10240   0.04990  Uani   1.00
H147   H     0.22110   0.71230   0.09070   0.06000  Uiso   1.00
C148   C     0.24360   0.82422   0.10600   0.04763  Uani   1.00
H149   H     0.29780   0.84830   0.09710   0.05700  Uiso   1.00
C150   C     0.99239   0.58215   0.08270   0.05447  Uani   1.00
H151   H     0.96530   0.60220   0.05030   0.06500  Uiso   1.00
C152   C     0.96512   0.50659   0.10700   0.05393  Uani   1.00
H153   H     0.91520   0.46490   0.09300   0.06500  Uiso   1.00
C154   C     0.08314   0.57159   0.15920   0.04776  Uani   1.00
H155   H     0.13050   0.58450   0.18800   0.05700  Uiso   1.00
O156   O     0.65056   0.53125   0.21523   0.04756  Uani   1.00
O157   O     0.76671   0.55554   0.15894   0.05877  Uani   1.00
O158   O     0.88760   0.67253   0.10171   0.06113  Uani   1.00
H159   H     0.84600   0.63330   0.11600   0.09200  Uiso   1.00
O160   O     0.92525   0.79521   0.06150   0.08098  Uani   1.00
N161   N     0.67017   0.67000   0.15286   0.03827  Uani   1.00
N162   N     0.77557   0.77281   0.09748   0.05093  Uani   1.00
H163   H     0.80610   0.81950   0.07630   0.06100  Uiso   1.00
N164   N     0.55535   0.93143   0.11580   0.04616  Uani   1.00
N165   N     0.47813   0.97799   0.15559   0.04600  Uani   1.00
C166   C     0.87577   0.73093   0.08900   0.05466  Uani   1.00
C167   C     0.79526   0.71596   0.10955   0.04397  Uani   1.00
C168   C     0.72926   0.65193   0.14419   0.03834  Uani   1.00
C169   C     0.71436   0.57418   0.17466   0.04378  Uani   1.00
C170   C     0.70000   0.74354   0.12438   0.03961  Uani   1.00
C171   C     0.66102   0.79079   0.12279   0.04209  Uani   1.00
C172   C     0.70523   0.87133   0.13670   0.05062  Uani   1.00
H173   H     0.75900   0.89460   0.14800   0.06100  Uiso   1.00
C174   C     0.67026   0.91741   0.13380   0.05291  Uani   1.00
H175   H     0.70010   0.97140   0.14370   0.06400  Uiso   1.00
C176   C     0.59033   0.88240   0.11630   0.04447  Uani   1.00
C177   C     0.54499   0.80207   0.10240   0.04990  Uani   1.00
H178   H     0.49120   0.77890   0.09070   0.06000  Uiso   1.00
C179   C     0.58062   0.75640   0.10600   0.04763  Uani   1.00
H180   H     0.55050   0.70220   0.09710   0.05700  Uiso   1.00
C181   C     0.58976   0.00761   0.08270   0.05447  Uani   1.00
H182   H     0.63690   0.03470   0.05030   0.06500  Uiso   1.00
C183   C     0.54147   0.03488   0.10700   0.05393  Uani   1.00
H184   H     0.54970   0.08480   0.09300   0.06500  Uiso   1.00
C185   C     0.48845   0.91686   0.15920   0.04776  Uani   1.00
H186   H     0.45400   0.86950   0.18800   0.05700  Uiso   1.00
O187   O     0.65056   0.11931   0.71523   0.04756  Uani   1.00
O188   O     0.76671   0.21117   0.65894   0.05877  Uani   1.00
O189   O     0.88760   0.21507   0.60171   0.06113  Uani   1.00
H190   H     0.84600   0.21270   0.61600   0.09200  Uiso   1.00
O191   O     0.92525   0.13004   0.56150   0.08098  Uani   1.00
N192   N     0.67017   0.00017   0.65286   0.03827  Uani   1.00
N193   N     0.77557   0.00276   0.59748   0.05093  Uani   1.00
H194   H     0.80610   0.98660   0.57630   0.06100  Uiso   1.00
N195   N     0.55535   0.62392   0.61580   0.04616  Uani   1.00
N196   N     0.47813   0.50014   0.65559   0.04600  Uani   1.00
C197   C     0.87577   0.14484   0.58900   0.05466  Uani   1.00
C198   C     0.79526   0.07930   0.60955   0.04397  Uani   1.00
C199   C     0.72926   0.07733   0.64419   0.03834  Uani   1.00
C200   C     0.71436   0.14018   0.67466   0.04378  Uani   1.00
C201   C     0.70000   0.95646   0.62438   0.03961  Uani   1.00
C202   C     0.66102   0.87023   0.62279   0.04209  Uani   1.00
C203   C     0.70523   0.83390   0.63670   0.05062  Uani   1.00
H204   H     0.75900   0.86440   0.64800   0.06100  Uiso   1.00
C205   C     0.67026   0.75285   0.63380   0.05291  Uani   1.00
H206   H     0.70010   0.72870   0.64370   0.06400  Uiso   1.00
C207   C     0.59033   0.70793   0.61630   0.04447  Uani   1.00
C208   C     0.54499   0.74292   0.60240   0.04990  Uani   1.00
H209   H     0.49120   0.71230   0.59070   0.06000  Uiso   1.00
C210   C     0.58062   0.82422   0.60600   0.04763  Uani   1.00
H211   H     0.55050   0.84830   0.59710   0.05700  Uiso   1.00
C212   C     0.58976   0.58215   0.58270   0.05447  Uani   1.00
H213   H     0.63690   0.60220   0.55030   0.06500  Uiso   1.00
C214   C     0.54147   0.50659   0.60700   0.05393  Uani   1.00
H215   H     0.54970   0.46490   0.59300   0.06500  Uiso   1.00
C216   C     0.48845   0.57159   0.65920   0.04776  Uani   1.00
H217   H     0.45400   0.58450   0.68800   0.05700  Uiso   1.00
O218   O     0.88069   0.53125   0.71523   0.04756  Uani   1.00
O219   O     0.78883   0.55554   0.65894   0.05877  Uani   1.00
O220   O     0.78493   0.67253   0.60171   0.06113  Uani   1.00
H221   H     0.78730   0.63330   0.61600   0.09200  Uiso   1.00
O222   O     0.86996   0.79521   0.56150   0.08098  Uani   1.00
N223   N     0.99983   0.67000   0.65286   0.03827  Uani   1.00
N224   N     0.99724   0.77281   0.59748   0.05093  Uani   1.00
H225   H     0.01340   0.81950   0.57630   0.06100  Uiso   1.00
N226   N     0.37608   0.93143   0.61580   0.04616  Uani   1.00
N227   N     0.49986   0.97799   0.65559   0.04600  Uani   1.00
C228   C     0.85516   0.73093   0.58900   0.05466  Uani   1.00
C229   C     0.92070   0.71596   0.60955   0.04397  Uani   1.00
C230   C     0.92267   0.65193   0.64419   0.03834  Uani   1.00
C231   C     0.85982   0.57418   0.67466   0.04378  Uani   1.00
C232   C     0.04354   0.74354   0.62438   0.03961  Uani   1.00
C233   C     0.12977   0.79079   0.62279   0.04209  Uani   1.00
C234   C     0.16610   0.87133   0.63670   0.05062  Uani   1.00
H235   H     0.13560   0.89460   0.64800   0.06100  Uiso   1.00
C236   C     0.24715   0.91741   0.63380   0.05291  Uani   1.00
H237   H     0.27130   0.97140   0.64370   0.06400  Uiso   1.00
C238   C     0.29207   0.88240   0.61630   0.04447  Uani   1.00
C239   C     0.25708   0.80207   0.60240   0.04990  Uani   1.00
H240   H     0.28770   0.77890   0.59070   0.06000  Uiso   1.00
C241   C     0.17578   0.75640   0.60600   0.04763  Uani   1.00
H242   H     0.15170   0.70220   0.59710   0.05700  Uiso   1.00
C243   C     0.41785   0.00761   0.58270   0.05447  Uani   1.00
H244   H     0.39780   0.03470   0.55030   0.06500  Uiso   1.00
C245   C     0.49341   0.03488   0.60700   0.05393  Uani   1.00
H246   H     0.53510   0.08480   0.59300   0.06500  Uiso   1.00
C247   C     0.42841   0.91686   0.65920   0.04776  Uani   1.00
H248   H     0.41550   0.86950   0.68800   0.05700  Uiso   1.00
O249   O     0.46875   0.34944   0.71523   0.04756  Uani   1.00
O250   O     0.44446   0.23329   0.65894   0.05877  Uani   1.00
O251   O     0.32747   0.11240   0.60171   0.06113  Uani   1.00
H252   H     0.36670   0.15400   0.61600   0.09200  Uiso   1.00
O253   O     0.20479   0.07475   0.56150   0.08098  Uani   1.00
N254   N     0.33000   0.32983   0.65286   0.03827  Uani   1.00
N255   N     0.22719   0.22443   0.59748   0.05093  Uani   1.00
H256   H     0.18050   0.19390   0.57630   0.06100  Uiso   1.00
N257   N     0.06857   0.44465   0.61580   0.04616  Uani   1.00
N258   N     0.02201   0.52187   0.65559   0.04600  Uani   1.00
C259   C     0.26907   0.12423   0.58900   0.05466  Uani   1.00
C260   C     0.28404   0.20474   0.60955   0.04397  Uani   1.00
C261   C     0.34807   0.27074   0.64419   0.03834  Uani   1.00
C262   C     0.42582   0.28564   0.67466   0.04378  Uani   1.00
C263   C     0.25646   0.30000   0.62438   0.03961  Uani   1.00
C264   C     0.20921   0.33898   0.62279   0.04209  Uani   1.00
C265   C     0.12867   0.29477   0.63670   0.05062  Uani   1.00
H266   H     0.10540   0.24100   0.64800   0.06100  Uiso   1.00
C267   C     0.08259   0.32974   0.63380   0.05291  Uani   1.00
H268   H     0.02860   0.29990   0.64370   0.06400  Uiso   1.00
C269   C     0.11760   0.40967   0.61630   0.04447  Uani   1.00
C270   C     0.19793   0.45501   0.60240   0.04990  Uani   1.00
H271   H     0.22110   0.50880   0.59070   0.06000  Uiso   1.00
C272   C     0.24360   0.41938   0.60600   0.04763  Uani   1.00
H273   H     0.29780   0.44950   0.59710   0.05700  Uiso   1.00
C274   C     0.99239   0.41024   0.58270   0.05447  Uani   1.00
H275   H     0.96530   0.36310   0.55030   0.06500  Uiso   1.00
C276   C     0.96512   0.45853   0.60700   0.05393  Uani   1.00
H277   H     0.91520   0.45030   0.59300   0.06500  Uiso   1.00
C278   C     0.08314   0.51155   0.65920   0.04776  Uani   1.00
H279   H     0.13050   0.54600   0.68800   0.05700  Uiso   1.00
O280   O     0.11931   0.65056   0.78477   0.04756  Uani   1.00
O281   O     0.21117   0.76671   0.84106   0.05877  Uani   1.00
O282   O     0.21507   0.88760   0.89829   0.06113  Uani   1.00
H283   H     0.21270   0.84600   0.88400   0.09200  Uiso   1.00
O284   O     0.13004   0.92525   0.93850   0.08098  Uani   1.00
N285   N     0.00017   0.67017   0.84714   0.03827  Uani   1.00
N286   N     0.00276   0.77557   0.90252   0.05093  Uani   1.00
H287   H     0.98660   0.80610   0.92370   0.06100  Uiso   1.00
N288   N     0.62392   0.55535   0.88420   0.04616  Uani   1.00
N289   N     0.50014   0.47813   0.84441   0.04600  Uani   1.00
C290   C     0.14484   0.87577   0.91100   0.05466  Uani   1.00
C291   C     0.07930   0.79526   0.89045   0.04397  Uani   1.00
C292   C     0.07733   0.72926   0.85581   0.03834  Uani   1.00
C293   C     0.14018   0.71436   0.82534   0.04378  Uani   1.00
C294   C     0.95646   0.70000   0.87562   0.03961  Uani   1.00
C295   C     0.87023   0.66102   0.87721   0.04209  Uani   1.00
C296   C     0.83390   0.70523   0.86330   0.05062  Uani   1.00
H297   H     0.86440   0.75900   0.85200   0.06100  Uiso   1.00
C298   C     0.75285   0.67026   0.86620   0.05291  Uani   1.00
H299   H     0.72870   0.70010   0.85630   0.06400  Uiso   1.00
C300   C     0.70793   0.59033   0.88370   0.04447  Uani   1.00
C301   C     0.74292   0.54499   0.89760   0.04990  Uani   1.00
H302   H     0.71230   0.49120   0.90930   0.06000  Uiso   1.00
C303   C     0.82422   0.58062   0.89400   0.04763  Uani   1.00
H304   H     0.84830   0.55050   0.90290   0.05700  Uiso   1.00
C305   C     0.58215   0.58976   0.91730   0.05447  Uani   1.00
H306   H     0.60220   0.63690   0.94970   0.06500  Uiso   1.00
C307   C     0.50659   0.54147   0.89300   0.05393  Uani   1.00
H308   H     0.46490   0.54970   0.90700   0.06500  Uiso   1.00
C309   C     0.57159   0.48845   0.84080   0.04776  Uani   1.00
H310   H     0.58450   0.45400   0.81200   0.05700  Uiso   1.00
O311   O     0.53125   0.88069   0.78477   0.04756  Uani   1.00
O312   O     0.55554   0.78883   0.84106   0.05877  Uani   1.00
O313   O     0.67253   0.78493   0.89829   0.06113  Uani   1.00
H314   H     0.63330   0.78730   0.88400   0.09200  Uiso   1.00
O315   O     0.79521   0.86996   0.93850   0.08098  Uani   1.00
N316   N     0.67000   0.99983   0.84714   0.03827  Uani   1.00
N317   N     0.77281   0.99724   0.90252   0.05093  Uani   1.00
H318   H     0.81950   0.01340   0.92370   0.06100  Uiso   1.00
N319   N     0.93143   0.37608   0.88420   0.04616  Uani   1.00
N320   N     0.97799   0.49986   0.84441   0.04600  Uani   1.00
C321   C     0.73093   0.85516   0.91100   0.05466  Uani   1.00
C322   C     0.71596   0.92070   0.89045   0.04397  Uani   1.00
C323   C     0.65193   0.92267   0.85581   0.03834  Uani   1.00
C324   C     0.57418   0.85982   0.82534   0.04378  Uani   1.00
C325   C     0.74354   0.04354   0.87562   0.03961  Uani   1.00
C326   C     0.79079   0.12977   0.87721   0.04209  Uani   1.00
C327   C     0.87133   0.16610   0.86330   0.05062  Uani   1.00
H328   H     0.89460   0.13560   0.85200   0.06100  Uiso   1.00
C329   C     0.91741   0.24715   0.86620   0.05291  Uani   1.00
H330   H     0.97140   0.27130   0.85630   0.06400  Uiso   1.00
C331   C     0.88240   0.29207   0.88370   0.04447  Uani   1.00
C332   C     0.80207   0.25708   0.89760   0.04990  Uani   1.00
H333   H     0.77890   0.28770   0.90930   0.06000  Uiso   1.00
C334   C     0.75640   0.17578   0.89400   0.04763  Uani   1.00
H335   H     0.70220   0.15170   0.90290   0.05700  Uiso   1.00
C336   C     0.00761   0.41785   0.91730   0.05447  Uani   1.00
H337   H     0.03470   0.39780   0.94970   0.06500  Uiso   1.00
C338   C     0.03488   0.49341   0.89300   0.05393  Uani   1.00
H339   H     0.08480   0.53510   0.90700   0.06500  Uiso   1.00
C340   C     0.91686   0.42841   0.84080   0.04776  Uani   1.00
H341   H     0.86950   0.41550   0.81200   0.05700  Uiso   1.00
O342   O     0.34944   0.46875   0.78477   0.04756  Uani   1.00
O343   O     0.23329   0.44446   0.84106   0.05877  Uani   1.00
O344   O     0.11240   0.32747   0.89829   0.06113  Uani   1.00
H345   H     0.15400   0.36670   0.88400   0.09200  Uiso   1.00
O346   O     0.07475   0.20479   0.93850   0.08098  Uani   1.00
N347   N     0.32983   0.33000   0.84714   0.03827  Uani   1.00
N348   N     0.22443   0.22719   0.90252   0.05093  Uani   1.00
H349   H     0.19390   0.18050   0.92370   0.06100  Uiso   1.00
N350   N     0.44465   0.06857   0.88420   0.04616  Uani   1.00
N351   N     0.52187   0.02201   0.84441   0.04600  Uani   1.00
C352   C     0.12423   0.26907   0.91100   0.05466  Uani   1.00
C353   C     0.20474   0.28404   0.89045   0.04397  Uani   1.00
C354   C     0.27074   0.34807   0.85581   0.03834  Uani   1.00
C355   C     0.28564   0.42582   0.82534   0.04378  Uani   1.00
C356   C     0.30000   0.25646   0.87562   0.03961  Uani   1.00
C357   C     0.33898   0.20921   0.87721   0.04209  Uani   1.00
C358   C     0.29477   0.12867   0.86330   0.05062  Uani   1.00
H359   H     0.24100   0.10540   0.85200   0.06100  Uiso   1.00
C360   C     0.32974   0.08259   0.86620   0.05291  Uani   1.00
H361   H     0.29990   0.02860   0.85630   0.06400  Uiso   1.00
C362   C     0.40967   0.11760   0.88370   0.04447  Uani   1.00
C363   C     0.45501   0.19793   0.89760   0.04990  Uani   1.00
H364   H     0.50880   0.22110   0.90930   0.06000  Uiso   1.00
C365   C     0.41938   0.24360   0.89400   0.04763  Uani   1.00
H366   H     0.44950   0.29780   0.90290   0.05700  Uiso   1.00
C367   C     0.41024   0.99239   0.91730   0.05447  Uani   1.00
H368   H     0.36310   0.96530   0.94970   0.06500  Uiso   1.00
C369   C     0.45853   0.96512   0.89300   0.05393  Uani   1.00
H370   H     0.45030   0.91520   0.90700   0.06500  Uiso   1.00
C371   C     0.51155   0.08314   0.84080   0.04776  Uani   1.00
H372   H     0.54600   0.13050   0.81200   0.05700  Uiso   1.00
Ni373  Ni    0.58745   0.58745   0.25000   0.03743  Uani   1.00
Ni374  Ni    0.41255  -0.00000   0.25000   0.03743  Uani   1.00
Ni375  Ni    0.00000   0.41255   0.25000   0.03743  Uani   1.00
Ni376  Ni    0.41255   0.41255   0.75000   0.03743  Uani   1.00
Ni377  Ni    0.58745  -0.00000   0.75000   0.03743  Uani   1.00
Ni378  Ni    0.00000   0.58745   0.75000   0.03743  Uani   1.00
loop_
_atom_site_aniso_label
_atom_site_aniso_U_11
_atom_site_aniso_U_22
_atom_site_aniso_U_33
_atom_site_aniso_U_12
_atom_site_aniso_U_13
_atom_site_aniso_U_23
O1        0.04100   0.03250   0.07160   0.02020   0.00490   0.00510
O2        0.05620   0.02710   0.07990   0.01100   0.01430   0.00760
O3        0.04170   0.03710   0.08380   0.00410   0.01330   0.00970
O5        0.04820   0.06230   0.12800   0.02430   0.03520   0.03370
N6        0.03050   0.02730   0.05120   0.01010  -0.00060   0.00150
N7        0.04240   0.03460   0.07160   0.01610   0.02020   0.00510
N9        0.03800   0.03040   0.06540   0.01360   0.00800   0.00280
N10       0.03610   0.02870   0.06760   0.01200   0.00640   0.00120
C11       0.03910   0.04060   0.07130   0.01020   0.01170   0.01320
C12       0.03680   0.03230   0.05390   0.01060   0.00870   0.00390
C13       0.03440   0.02830   0.04450   0.00980   0.00230   0.00390
C14       0.03910   0.02930   0.05560   0.01160   0.00010   0.00390
C15       0.03370   0.03040   0.04790   0.01090   0.00310   0.00170
C16       0.03760   0.02960   0.05400   0.01300   0.00480   0.00100
C17       0.03390   0.03430   0.07800   0.01280   0.00310   0.00380
C19       0.03850   0.03530   0.08500   0.01850   0.00350   0.00420
C21       0.03960   0.03020   0.05940   0.01430   0.00600   0.00430
C22       0.03490   0.03620   0.07130   0.01230  -0.00160   0.00190
C24       0.04040   0.03590   0.06650   0.01900  -0.00060   0.00070
C26       0.04740   0.03980   0.07300   0.01940   0.01920   0.00360
C28       0.05010   0.03640   0.07380   0.02050   0.01270  -0.00110
C30       0.03720   0.03400   0.06860   0.01520   0.01010   0.00420
O32       0.03250   0.03310   0.07160   0.01230  -0.00510  -0.00020
O33       0.02710   0.06130   0.07990   0.01610  -0.00760   0.00670
O34       0.03710   0.07060   0.08380   0.03300  -0.00970   0.00360
O36       0.06230   0.06190   0.12800   0.03800  -0.03370   0.00150
N37       0.02730   0.03760   0.05120   0.01720  -0.00150  -0.00210
N38       0.03460   0.04480   0.07160   0.01850  -0.00510   0.01510
N40       0.03040   0.04120   0.06540   0.01680  -0.00280   0.00520
N41       0.02870   0.04080   0.06760   0.01670  -0.00120   0.00520
C42       0.04060   0.05930   0.07130   0.03040  -0.01320  -0.00150
C43       0.03230   0.04790   0.05390   0.02170  -0.00390   0.00480
C44       0.02830   0.04310   0.04450   0.01850  -0.00390  -0.00160
C45       0.02930   0.04520   0.05560   0.01770  -0.00390  -0.00380
C46       0.03040   0.04230   0.04790   0.01950  -0.00170   0.00140
C47       0.02960   0.04120   0.05400   0.01660  -0.00100   0.00380
C48       0.03430   0.04260   0.07800   0.02150  -0.00380  -0.00070
C50       0.03530   0.03680   0.08500   0.01680  -0.00420  -0.00070
C52       0.03020   0.04120   0.05940   0.01590  -0.00430   0.00170
C53       0.03620   0.04650   0.07130   0.02390  -0.00190  -0.00350
C55       0.03590   0.03830   0.06650   0.01690  -0.00070  -0.00130
C57       0.03980   0.04840   0.07300   0.02040  -0.00360   0.01560
C59       0.03640   0.04550   0.07380   0.01590   0.00110   0.01380
C61       0.03400   0.04080   0.06860   0.01880  -0.00420   0.00590
O63       0.03310   0.04100   0.07160   0.02080   0.00020  -0.00490
O64       0.06130   0.05620   0.07990   0.04520  -0.00670  -0.01430
O65       0.07060   0.04170   0.08380   0.03760  -0.00360  -0.01330
O67       0.06190   0.04820   0.12800   0.02390  -0.00150  -0.03520
N68       0.03760   0.03050   0.05120   0.02040   0.00210   0.00060
N69       0.04480   0.04240   0.07160   0.02630  -0.01510  -0.02020
N71       0.04120   0.03800   0.06540   0.02440  -0.00520  -0.00800
N72       0.04080   0.03610   0.06760   0.02410  -0.00520  -0.00640
C73       0.05930   0.03910   0.07130   0.02890   0.00150  -0.01170
C74       0.04790   0.03680   0.05390   0.02620  -0.00480  -0.00870
C75       0.04310   0.03440   0.04450   0.02460   0.00160  -0.00230
C76       0.04520   0.03910   0.05560   0.02750   0.00380  -0.00010
C77       0.04230   0.03370   0.04790   0.02280  -0.00140  -0.00310
C78       0.04120   0.03760   0.05400   0.02460  -0.00380  -0.00480
C79       0.04260   0.03390   0.07800   0.02110   0.00070  -0.00310
C81       0.03680   0.03850   0.08500   0.02000   0.00070  -0.00350
C83       0.04120   0.03960   0.05940   0.02530  -0.00170  -0.00600
C84       0.04650   0.03490   0.07130   0.02260   0.00350   0.00160
C86       0.03830   0.04040   0.06650   0.02140   0.00130   0.00060
C88       0.04840   0.04740   0.07300   0.02800  -0.01560  -0.01920
C90       0.04550   0.05010   0.07380   0.02960  -0.01380  -0.01270
C92       0.04080   0.03720   0.06860   0.02200  -0.00590  -0.01010
O94       0.03250   0.04100   0.07160   0.02020  -0.00510  -0.00490
O95       0.02710   0.05620   0.07990   0.01100  -0.00760  -0.01430
O96       0.03710   0.04170   0.08380   0.00410  -0.00970  -0.01330
O98       0.06230   0.04820   0.12800   0.02430  -0.03370  -0.03520
N99       0.02730   0.03050   0.05120   0.01010  -0.00150   0.00060
N100      0.03460   0.04240   0.07160   0.01610  -0.00510  -0.02020
N102      0.03040   0.03800   0.06540   0.01360  -0.00280  -0.00800
N103      0.02870   0.03610   0.06760   0.01200  -0.00120  -0.00640
C104      0.04060   0.03910   0.07130   0.01020  -0.01320  -0.01170
C105      0.03230   0.03680   0.05390   0.01060  -0.00390  -0.00870
C106      0.02830   0.03440   0.04450   0.00980  -0.00390  -0.00230
C107      0.02930   0.03910   0.05560   0.01160  -0.00390  -0.00010
C108      0.03040   0.03370   0.04790   0.01090  -0.00170  -0.00310
C109      0.02960   0.03760   0.05400   0.01300  -0.00100  -0.00480
C110      0.03430   0.03390   0.07800   0.01280  -0.00380  -0.00310
C112      0.03530   0.03850   0.08500   0.01850  -0.00420  -0.00350
C114      0.03020   0.03960   0.05940   0.01430  -0.00430  -0.00600
C115      0.03620   0.03490   0.07130   0.01230  -0.00190   0.00160
C117      0.03590   0.04040   0.06650   0.01900  -0.00070   0.00060
C119      0.03980   0.04740   0.07300   0.01940  -0.00360  -0.01920
C121      0.03640   0.05010   0.07380   0.02050   0.00110  -0.01270
C123      0.03400   0.03720   0.06860   0.01520  -0.00420  -0.01010
O125      0.03310   0.03250   0.07160   0.01230   0.00020   0.00510
O126      0.06130   0.02710   0.07990   0.01610  -0.00670   0.00760
O127      0.07060   0.03710   0.08380   0.03300  -0.00360   0.00970
O129      0.06190   0.06230   0.12800   0.03800  -0.00150   0.03370
N130      0.03760   0.02730   0.05120   0.01720   0.00210   0.00150
N131      0.04480   0.03460   0.07160   0.01850  -0.01510   0.00510
N133      0.04120   0.03040   0.06540   0.01680  -0.00520   0.00280
N134      0.04080   0.02870   0.06760   0.01670  -0.00520   0.00120
C135      0.05930   0.04060   0.07130   0.03040   0.00150   0.01320
C136      0.04790   0.03230   0.05390   0.02170  -0.00480   0.00390
C137      0.04310   0.02830   0.04450   0.01850   0.00160   0.00390
C138      0.04520   0.02930   0.05560   0.01770   0.00380   0.00390
C139      0.04230   0.03040   0.04790   0.01950  -0.00140   0.00170
C140      0.04120   0.02960   0.05400   0.01660  -0.00380   0.00100
C141      0.04260   0.03430   0.07800   0.02150   0.00070   0.00380
C143      0.03680   0.03530   0.08500   0.01680   0.00070   0.00420
C145      0.04120   0.03020   0.05940   0.01590  -0.00170   0.00430
C146      0.04650   0.03620   0.07130   0.02390   0.00350   0.00190
C148      0.03830   0.03590   0.06650   0.01690   0.00130   0.00070
C150      0.04840   0.03980   0.07300   0.02040  -0.01560   0.00360
C152      0.04550   0.03640   0.07380   0.01590  -0.01380  -0.00110
C154      0.04080   0.03400   0.06860   0.01880  -0.00590   0.00420
O156      0.04100   0.03310   0.07160   0.02080   0.00490  -0.00020
O157      0.05620   0.06130   0.07990   0.04520   0.01430   0.00670
O158      0.04170   0.07060   0.08380   0.03760   0.01330   0.00360
O160      0.04820   0.06190   0.12800   0.02390   0.03520   0.00150
N161      0.03050   0.03760   0.05120   0.02040  -0.00060  -0.00210
N162      0.04240   0.04480   0.07160   0.02630   0.02020   0.01510
N164      0.03800   0.04120   0.06540   0.02440   0.00800   0.00520
N165      0.03610   0.04080   0.06760   0.02410   0.00640   0.00520
C166      0.03910   0.05930   0.07130   0.02890   0.01170  -0.00150
C167      0.03680   0.04790   0.05390   0.02620   0.00870   0.00480
C168      0.03440   0.04310   0.04450   0.02460   0.00230  -0.00160
C169      0.03910   0.04520   0.05560   0.02750   0.00010  -0.00380
C170      0.03370   0.04230   0.04790   0.02280   0.00310   0.00140
C171      0.03760   0.04120   0.05400   0.02460   0.00480   0.00380
C172      0.03390   0.04260   0.07800   0.02110   0.00310  -0.00070
C174      0.03850   0.03680   0.08500   0.02000   0.00350  -0.00070
C176      0.03960   0.04120   0.05940   0.02530   0.00600   0.00170
C177      0.03490   0.04650   0.07130   0.02260  -0.00160  -0.00350
C179      0.04040   0.03830   0.06650   0.02140  -0.00060  -0.00130
C181      0.04740   0.04840   0.07300   0.02800   0.01920   0.01560
C183      0.05010   0.04550   0.07380   0.02960   0.01270   0.01380
C185      0.03720   0.04080   0.06860   0.02200   0.01010   0.00590
O187      0.04100   0.03250   0.07160   0.02020   0.00490   0.00510
O188      0.05620   0.02710   0.07990   0.01100   0.01430   0.00760
O189      0.04170   0.03710   0.08380   0.00410   0.01330   0.00970
O191      0.04820   0.06230   0.12800   0.02430   0.03520   0.03370
N192      0.03050   0.02730   0.05120   0.01010  -0.00060   0.00150
N193      0.04240   0.03460   0.07160   0.01610   0.02020   0.00510
N195      0.03800   0.03040   0.06540   0.01360   0.00800   0.00280
N196      0.03610   0.02870   0.06760   0.01200   0.00640   0.00120
C197      0.03910   0.04060   0.07130   0.01020   0.01170   0.01320
C198      0.03680   0.03230   0.05390   0.01060   0.00870   0.00390
C199      0.03440   0.02830   0.04450   0.00980   0.00230   0.00390
C200      0.03910   0.02930   0.05560   0.01160   0.00010   0.00390
C201      0.03370   0.03040   0.04790   0.01090   0.00310   0.00170
C202      0.03760   0.02960   0.05400   0.01300   0.00480   0.00100
C203      0.03390   0.03430   0.07800   0.01280   0.00310   0.00380
C205      0.03850   0.03530   0.08500   0.01850   0.00350   0.00420
C207      0.03960   0.03020   0.05940   0.01430   0.00600   0.00430
C208      0.03490   0.03620   0.07130   0.01230  -0.00160   0.00190
C210      0.04040   0.03590   0.06650   0.01900  -0.00060   0.00070
C212      0.04740   0.03980   0.07300   0.01940   0.01920   0.00360
C214      0.05010   0.03640   0.07380   0.02050   0.01270  -0.00110
C216      0.03720   0.03400   0.06860   0.01520   0.01010   0.00420
O218      0.03250   0.03310   0.07160   0.01230  -0.00510  -0.00020
O219      0.02710   0.06130   0.07990   0.01610  -0.00760   0.00670
O220      0.03710   0.07060   0.08380   0.03300  -0.00970   0.00360
O222      0.06230   0.06190   0.12800   0.03800  -0.03370   0.00150
N223      0.02730   0.03760   0.05120   0.01720  -0.00150  -0.00210
N224      0.03460   0.04480   0.07160   0.01850  -0.00510   0.01510
N226      0.03040   0.04120   0.06540   0.01680  -0.00280   0.00520
N227      0.02870   0.04080   0.06760   0.01670  -0.00120   0.00520
C228      0.04060   0.05930   0.07130   0.03040  -0.01320  -0.00150
C229      0.03230   0.04790   0.05390   0.02170  -0.00390   0.00480
C230      0.02830   0.04310   0.04450   0.01850  -0.00390  -0.00160
C231      0.02930   0.04520   0.05560   0.01770  -0.00390  -0.00380
C232      0.03040   0.04230   0.04790   0.01950  -0.00170   0.00140
C233      0.02960   0.04120   0.05400   0.01660  -0.00100   0.00380
C234      0.03430   0.04260   0.07800   0.02150  -0.00380  -0.00070
C236      0.03530   0.03680   0.08500   0.01680  -0.00420  -0.00070
C238      0.03020   0.04120   0.05940   0.01590  -0.00430   0.00170
C239      0.03620   0.04650   0.07130   0.02390  -0.00190  -0.00350
C241      0.03590   0.03830   0.06650   0.01690  -0.00070  -0.00130
C243      0.03980   0.04840   0.07300   0.02040  -0.00360   0.01560
C245      0.03640   0.04550   0.07380   0.01590   0.00110   0.01380
C247      0.03400   0.04080   0.06860   0.01880  -0.00420   0.00590
O249      0.03310   0.04100   0.07160   0.02080   0.00020  -0.00490
O250      0.06130   0.05620   0.07990   0.04520  -0.00670  -0.01430
O251      0.07060   0.04170   0.08380   0.03760  -0.00360  -0.01330
O253      0.06190   0.04820   0.12800   0.02390  -0.00150  -0.03520
N254      0.03760   0.03050   0.05120   0.02040   0.00210   0.00060
N255      0.04480   0.04240   0.07160   0.02630  -0.01510  -0.02020
N257      0.04120   0.03800   0.06540   0.02440  -0.00520  -0.00800
N258      0.04080   0.03610   0.06760   0.02410  -0.00520  -0.00640
C259      0.05930   0.03910   0.07130   0.02890   0.00150  -0.01170
C260      0.04790   0.03680   0.05390   0.02620  -0.00480  -0.00870
C261      0.04310   0.03440   0.04450   0.02460   0.00160  -0.00230
C262      0.04520   0.03910   0.05560   0.02750   0.00380  -0.00010
C263      0.04230   0.03370   0.04790   0.02280  -0.00140  -0.00310
C264      0.04120   0.03760   0.05400   0.02460  -0.00380  -0.00480
C265      0.04260   0.03390   0.07800   0.02110   0.00070  -0.00310
C267      0.03680   0.03850   0.08500   0.02000   0.00070  -0.00350
C269      0.04120   0.03960   0.05940   0.02530  -0.00170  -0.00600
C270      0.04650   0.03490   0.07130   0.02260   0.00350   0.00160
C272      0.03830   0.04040   0.06650   0.02140   0.00130   0.00060
C274      0.04840   0.04740   0.07300   0.02800  -0.01560  -0.01920
C276      0.04550   0.05010   0.07380   0.02960  -0.01380  -0.01270
C278      0.04080   0.03720   0.06860   0.02200  -0.00590  -0.01010
O280      0.03250   0.04100   0.07160   0.02020  -0.00510  -0.00490
O281      0.02710   0.05620   0.07990   0.01100  -0.00760  -0.01430
O282      0.03710   0.04170   0.08380   0.00410  -0.00970  -0.01330
O284      0.06230   0.04820   0.12800   0.02430  -0.03370  -0.03520
N285      0.02730   0.03050   0.05120   0.01010  -0.00150   0.00060
N286      0.03460   0.04240   0.07160   0.01610  -0.00510  -0.02020
N288      0.03040   0.03800   0.06540   0.01360  -0.00280  -0.00800
N289      0.02870   0.03610   0.06760   0.01200  -0.00120  -0.00640
C290      0.04060   0.03910   0.07130   0.01020  -0.01320  -0.01170
C291      0.03230   0.03680   0.05390   0.01060  -0.00390  -0.00870
C292      0.02830   0.03440   0.04450   0.00980  -0.00390  -0.00230
C293      0.02930   0.03910   0.05560   0.01160  -0.00390  -0.00010
C294      0.03040   0.03370   0.04790   0.01090  -0.00170  -0.00310
C295      0.02960   0.03760   0.05400   0.01300  -0.00100  -0.00480
C296      0.03430   0.03390   0.07800   0.01280  -0.00380  -0.00310
C298      0.03530   0.03850   0.08500   0.01850  -0.00420  -0.00350
C300      0.03020   0.03960   0.05940   0.01430  -0.00430  -0.00600
C301      0.03620   0.03490   0.07130   0.01230  -0.00190   0.00160
C303      0.03590   0.04040   0.06650   0.01900  -0.00070   0.00060
C305      0.03980   0.04740   0.07300   0.01940  -0.00360  -0.01920
C307      0.03640   0.05010   0.07380   0.02050   0.00110  -0.01270
C309      0.03400   0.03720   0.06860   0.01520  -0.00420  -0.01010
O311      0.03310   0.03250   0.07160   0.01230   0.00020   0.00510
O312      0.06130   0.02710   0.07990   0.01610  -0.00670   0.00760
O313      0.07060   0.03710   0.08380   0.03300  -0.00360   0.00970
O315      0.06190   0.06230   0.12800   0.03800  -0.00150   0.03370
N316      0.03760   0.02730   0.05120   0.01720   0.00210   0.00150
N317      0.04480   0.03460   0.07160   0.01850  -0.01510   0.00510
N319      0.04120   0.03040   0.06540   0.01680  -0.00520   0.00280
N320      0.04080   0.02870   0.06760   0.01670  -0.00520   0.00120
C321      0.05930   0.04060   0.07130   0.03040   0.00150   0.01320
C322      0.04790   0.03230   0.05390   0.02170  -0.00480   0.00390
C323      0.04310   0.02830   0.04450   0.01850   0.00160   0.00390
C324      0.04520   0.02930   0.05560   0.01770   0.00380   0.00390
C325      0.04230   0.03040   0.04790   0.01950  -0.00140   0.00170
C326      0.04120   0.02960   0.05400   0.01660  -0.00380   0.00100
C327      0.04260   0.03430   0.07800   0.02150   0.00070   0.00380
C329      0.03680   0.03530   0.08500   0.01680   0.00070   0.00420
C331      0.04120   0.03020   0.05940   0.01590  -0.00170   0.00430
C332      0.04650   0.03620   0.07130   0.02390   0.00350   0.00190
C334      0.03830   0.03590   0.06650   0.01690   0.00130   0.00070
C336      0.04840   0.03980   0.07300   0.02040  -0.01560   0.00360
C338      0.04550   0.03640   0.07380   0.01590  -0.01380  -0.00110
C340      0.04080   0.03400   0.06860   0.01880  -0.00590   0.00420
O342      0.04100   0.03310   0.07160   0.02080   0.00490  -0.00020
O343      0.05620   0.06130   0.07990   0.04520   0.01430   0.00670
O344      0.04170   0.07060   0.08380   0.03760   0.01330   0.00360
O346      0.04820   0.06190   0.12800   0.02390   0.03520   0.00150
N347      0.03050   0.03760   0.05120   0.02040  -0.00060  -0.00210
N348      0.04240   0.04480   0.07160   0.02630   0.02020   0.01510
N350      0.03800   0.04120   0.06540   0.02440   0.00800   0.00520
N351      0.03610   0.04080   0.06760   0.02410   0.00640   0.00520
C352      0.03910   0.05930   0.07130   0.02890   0.01170  -0.00150
C353      0.03680   0.04790   0.05390   0.02620   0.00870   0.00480
C354      0.03440   0.04310   0.04450   0.02460   0.00230  -0.00160
C355      0.03910   0.04520   0.05560   0.02750   0.00010  -0.00380
C356      0.03370   0.04230   0.04790   0.02280   0.00310   0.00140
C357      0.03760   0.04120   0.05400   0.02460   0.00480   0.00380
C358      0.03390   0.04260   0.07800   0.02110   0.00310  -0.00070
C360      0.03850   0.03680   0.08500   0.02000   0.00350  -0.00070
C362      0.03960   0.04120   0.05940   0.02530   0.00600   0.00170
C363      0.03490   0.04650   0.07130   0.02260  -0.00160  -0.00350
C365      0.04040   0.03830   0.06650   0.02140  -0.00060  -0.00130
C367      0.04740   0.04840   0.07300   0.02800   0.01920   0.01560
C369      0.05010   0.04550   0.07380   0.02960   0.01270   0.01380
C371      0.03720   0.04080   0.06860   0.02200   0.01010   0.00590
Ni373     0.02613   0.02613   0.05880   0.01214   0.00232  -0.00232
Ni374     0.02613   0.02798   0.05880   0.01399   0.00232   0.00464
Ni375     0.02798   0.02613   0.05880   0.01399  -0.00464  -0.00232
Ni376     0.02613   0.02613   0.05880   0.01214   0.00232  -0.00232
Ni377     0.02613   0.02798   0.05880   0.01399   0.00232   0.00464
Ni378     0.02798   0.02613   0.05880   0.01399  -0.00464  -0.00232
loop_
_geom_bond_atom_site_label_1
_geom_bond_atom_site_label_2
_geom_bond_distance
_geom_bond_site_symmetry_2
_ccdc_geom_bond_type
O1     C14     1.250   .     S
O1     Ni374   2.087   1_565 S
O2     C14     1.269   .     S
O3     H4      0.819   .     S
O3     C11     1.289   .     S
O5     C11     1.210   .     S
N6     C13     1.375   .     S
N6     C15     1.321   1_565 S
N6     Ni374   2.145   1_565 S
N7     H8      0.861   1_565 S
N7     C12     1.360   .     S
N7     C15     1.350   1_565 S
H8     N7      0.861   1_545 S
N9     C21     1.432   .     S
N9     C26     1.380   .     S
N9     C30     1.349   .     S
N10    Ni373   2.064   .     S
N10    C28     1.376   .     S
N10    C30     1.311   .     S
C11    C12     1.483   .     S
C12    C13     1.369   .     S
C13    C14     1.468   .     S
C15    N6      1.321   1_545 S
C15    C16     1.465   .     S
C15    N7      1.350   1_545 S
C16    C17     1.383   .     S
C16    C24     1.390   .     S
C17    H18     0.929   .     S
C17    C19     1.380   .     S
C19    H20     0.929   .     S
C19    C21     1.383   .     S
C21    C22     1.381   .     S
C22    H23     0.931   .     S
C22    C24     1.384   .     S
C24    H25     0.930   .     S
C26    H27     0.930   .     S
C26    C28     1.345   .     S
C28    H29     0.930   .     S
C30    H31     0.929   .     S
O32    C45     1.250   .     S
O32    Ni375   2.087   .     S
O33    C45     1.269   .     S
O34    H35     0.819   .     S
O34    C42     1.289   .     S
O36    C42     1.210   .     S
N37    C44     1.375   .     S
N37    C46     1.321   1_455 S
N37    Ni375   2.145   .     S
N38    H39     0.861   1_455 S
N38    C43     1.360   .     S
N38    C46     1.350   1_455 S
H39    N38     0.861   1_655 S
N40    C52     1.432   .     S
N40    C57     1.380   1_545 S
N40    C61     1.349   .     S
N41    Ni374   2.064   .     S
N41    C59     1.376   1_545 S
N41    C61     1.311   .     S
C42    C43     1.483   .     S
C43    C44     1.369   .     S
C44    C45     1.468   .     S
C46    N37     1.321   1_655 S
C46    C47     1.465   .     S
C46    N38     1.350   1_655 S
C47    C48     1.383   .     S
C47    C55     1.390   .     S
C48    H49     0.929   .     S
C48    C50     1.380   .     S
C50    H51     0.929   .     S
C50    C52     1.383   .     S
C52    C53     1.381   .     S
C53    H54     0.931   .     S
C53    C55     1.384   .     S
C55    H56     0.930   .     S
C57    N40     1.380   1_565 S
C57    H58     0.930   .     S
C57    C59     1.345   .     S
C59    N41     1.376   1_565 S
C59    H60     0.930   .     S
C61    H62     0.929   .     S
O63    C76     1.250   .     S
O63    Ni373   2.087   .     S
O64    C76     1.269   .     S
O65    H66     0.819   .     S
O65    C73     1.289   .     S
O67    C73     1.210   .     S
N68    C75     1.375   .     S
N68    C77     1.321   .     S
N68    Ni373   2.145   .     S
N69    H70     0.861   .     S
N69    C74     1.360   .     S
N69    C77     1.350   .     S
N71    C83     1.432   .     S
N71    C88     1.380   1_655 S
N71    C92     1.349   .     S
N72    Ni375   2.064   1_655 S
N72    C90     1.376   1_655 S
N72    C92     1.311   .     S
C73    C74     1.483   .     S
C74    C75     1.369   .     S
C75    C76     1.468   .     S
C77    C78     1.465   .     S
C78    C79     1.383   .     S
C78    C86     1.390   .     S
C79    H80     0.929   .     S
C79    C81     1.380   .     S
C81    H82     0.929   .     S
C81    C83     1.383   .     S
C83    C84     1.381   .     S
C84    H85     0.931   .     S
C84    C86     1.384   .     S
C86    H87     0.930   .     S
C88    N71     1.380   1_455 S
C88    H89     0.930   .     S
C88    C90     1.345   .     S
C90    N72     1.376   1_455 S
C90    H91     0.930   .     S
C92    H93     0.929   .     S
O94    C107    1.250   .     S
O94    Ni375   2.087   1_655 S
O95    C107    1.269   .     S
O96    H97     0.819   .     S
O96    C104    1.289   .     S
O98    C104    1.210   .     S
N99    C106    1.375   .     S
N99    C108    1.321   1_655 S
N99    Ni375   2.145   1_655 S
N100   H101    0.861   1_655 S
N100   C105    1.360   .     S
N100   C108    1.350   1_655 S
H101   N100    0.861   1_455 S
N102   C114    1.432   .     S
N102   C119    1.380   .     S
N102   C123    1.349   .     S
N103   Ni373   2.064   .     S
N103   C121    1.376   .     S
N103   C123    1.311   .     S
C104   C105    1.483   .     S
C105   C106    1.369   .     S
C106   C107    1.468   .     S
C108   N99     1.321   1_455 S
C108   C109    1.465   .     S
C108   N100    1.350   1_455 S
C109   C110    1.383   .     S
C109   C117    1.390   .     S
C110   H111    0.929   .     S
C110   C112    1.380   .     S
C112   H113    0.929   .     S
C112   C114    1.383   .     S
C114   C115    1.381   .     S
C115   H116    0.931   .     S
C115   C117    1.384   .     S
C117   H118    0.930   .     S
C119   H120    0.930   .     S
C119   C121    1.345   .     S
C121   H122    0.930   .     S
C123   H124    0.929   .     S
O125   C138    1.250   .     S
O125   Ni374   2.087   .     S
O126   C138    1.269   .     S
O127   H128    0.819   .     S
O127   C135    1.289   .     S
O129   C135    1.210   .     S
N130   C137    1.375   .     S
N130   C139    1.321   1_545 S
N130   Ni374   2.145   .     S
N131   H132    0.861   1_545 S
N131   C136    1.360   .     S
N131   C139    1.350   1_545 S
H132   N131    0.861   1_565 S
N133   C145    1.432   .     S
N133   C150    1.380   1_455 S
N133   C154    1.349   .     S
N134   Ni375   2.064   .     S
N134   C152    1.376   1_455 S
N134   C154    1.311   .     S
C135   C136    1.483   .     S
C136   C137    1.369   .     S
C137   C138    1.468   .     S
C139   N130    1.321   1_565 S
C139   C140    1.465   .     S
C139   N131    1.350   1_565 S
C140   C141    1.383   .     S
C140   C148    1.390   .     S
C141   H142    0.929   .     S
C141   C143    1.380   .     S
C143   H144    0.929   .     S
C143   C145    1.383   .     S
C145   C146    1.381   .     S
C146   H147    0.931   .     S
C146   C148    1.384   .     S
C148   H149    0.930   .     S
C150   N133    1.380   1_655 S
C150   H151    0.930   .     S
C150   C152    1.345   .     S
C152   N134    1.376   1_655 S
C152   H153    0.930   .     S
C154   H155    0.929   .     S
O156   C169    1.250   .     S
O156   Ni373   2.087   .     S
O157   C169    1.269   .     S
O158   H159    0.819   .     S
O158   C166    1.289   .     S
O160   C166    1.210   .     S
N161   C168    1.375   .     S
N161   C170    1.321   .     S
N161   Ni373   2.145   .     S
N162   H163    0.861   .     S
N162   C167    1.360   .     S
N162   C170    1.350   .     S
N164   C176    1.432   .     S
N164   C181    1.380   1_565 S
N164   C185    1.349   .     S
N165   Ni374   2.064   1_565 S
N165   C183    1.376   1_565 S
N165   C185    1.311   .     S
C166   C167    1.483   .     S
C167   C168    1.369   .     S
C168   C169    1.468   .     S
C170   C171    1.465   .     S
C171   C172    1.383   .     S
C171   C179    1.390   .     S
C172   H173    0.929   .     S
C172   C174    1.380   .     S
C174   H175    0.929   .     S
C174   C176    1.383   .     S
C176   C177    1.381   .     S
C177   H178    0.931   .     S
C177   C179    1.384   .     S
C179   H180    0.930   .     S
C181   N164    1.380   1_545 S
C181   H182    0.930   .     S
C181   C183    1.345   .     S
C183   N165    1.376   1_545 S
C183   H184    0.930   .     S
C185   H186    0.929   .     S
O187   C200    1.250   .     S
O187   Ni377   2.087   .     S
O188   C200    1.269   .     S
O189   H190    0.819   .     S
O189   C197    1.289   .     S
O191   C197    1.210   .     S
N192   C199    1.375   .     S
N192   C201    1.321   1_545 S
N192   Ni377   2.145   .     S
N193   H194    0.861   1_545 S
N193   C198    1.360   .     S
N193   C201    1.350   1_545 S
H194   N193    0.861   1_565 S
N195   C207    1.432   .     S
N195   C212    1.380   .     S
N195   C216    1.349   .     S
N196   Ni376   2.064   .     S
N196   C214    1.376   .     S
N196   C216    1.311   .     S
C197   C198    1.483   .     S
C198   C199    1.369   .     S
C199   C200    1.468   .     S
C201   N192    1.321   1_565 S
C201   C202    1.465   .     S
C201   N193    1.350   1_565 S
C202   C203    1.383   .     S
C202   C210    1.390   .     S
C203   H204    0.929   .     S
C203   C205    1.380   .     S
C205   H206    0.929   .     S
C205   C207    1.383   .     S
C207   C208    1.381   .     S
C208   H209    0.931   .     S
C208   C210    1.384   .     S
C210   H211    0.930   .     S
C212   H213    0.930   .     S
C212   C214    1.345   .     S
C214   H215    0.930   .     S
C216   H217    0.929   .     S
O218   C231    1.250   .     S
O218   Ni378   2.087   1_655 S
O219   C231    1.269   .     S
O220   H221    0.819   .     S
O220   C228    1.289   .     S
O222   C228    1.210   .     S
N223   C230    1.375   .     S
N223   C232    1.321   1_655 S
N223   Ni378   2.145   1_655 S
N224   H225    0.861   1_655 S
N224   C229    1.360   .     S
N224   C232    1.350   1_655 S
H225   N224    0.861   1_455 S
N226   C238    1.432   .     S
N226   C243    1.380   1_565 S
N226   C247    1.349   .     S
N227   Ni377   2.064   1_565 S
N227   C245    1.376   1_565 S
N227   C247    1.311   .     S
C228   C229    1.483   .     S
C229   C230    1.369   .     S
C230   C231    1.468   .     S
C232   N223    1.321   1_455 S
C232   C233    1.465   .     S
C232   N224    1.350   1_455 S
C233   C234    1.383   .     S
C233   C241    1.390   .     S
C234   H235    0.929   .     S
C234   C236    1.380   .     S
C236   H237    0.929   .     S
C236   C238    1.383   .     S
C238   C239    1.381   .     S
C239   H240    0.931   .     S
C239   C241    1.384   .     S
C241   H242    0.930   .     S
C243   N226    1.380   1_545 S
C243   H244    0.930   .     S
C243   C245    1.345   .     S
C245   N227    1.376   1_545 S
C245   H246    0.930   .     S
C247   H248    0.929   .     S
O249   C262    1.250   .     S
O249   Ni376   2.087   .     S
O250   C262    1.269   .     S
O251   H252    0.819   .     S
O251   C259    1.289   .     S
O253   C259    1.210   .     S
N254   C261    1.375   .     S
N254   C263    1.321   .     S
N254   Ni376   2.145   .     S
N255   H256    0.861   .     S
N255   C260    1.360   .     S
N255   C263    1.350   .     S
N257   C269    1.432   .     S
N257   C274    1.380   1_455 S
N257   C278    1.349   .     S
N258   Ni378   2.064   .     S
N258   C276    1.376   1_455 S
N258   C278    1.311   .     S
C259   C260    1.483   .     S
C260   C261    1.369   .     S
C261   C262    1.468   .     S
C263   C264    1.465   .     S
C264   C265    1.383   .     S
C264   C272    1.390   .     S
C265   H266    0.929   .     S
C265   C267    1.380   .     S
C267   H268    0.929   .     S
C267   C269    1.383   .     S
C269   C270    1.381   .     S
C270   H271    0.931   .     S
C270   C272    1.384   .     S
C272   H273    0.930   .     S
C274   N257    1.380   1_655 S
C274   H275    0.930   .     S
C274   C276    1.345   .     S
C276   N258    1.376   1_655 S
C276   H277    0.930   .     S
C278   H279    0.929   .     S
O280   C293    1.250   .     S
O280   Ni378   2.087   .     S
O281   C293    1.269   .     S
O282   H283    0.819   .     S
O282   C290    1.289   .     S
O284   C290    1.210   .     S
N285   C292    1.375   .     S
N285   C294    1.321   1_455 S
N285   Ni378   2.145   .     S
N286   H287    0.861   1_455 S
N286   C291    1.360   .     S
N286   C294    1.350   1_455 S
H287   N286    0.861   1_655 S
N288   C300    1.432   .     S
N288   C305    1.380   .     S
N288   C309    1.349   .     S
N289   Ni376   2.064   .     S
N289   C307    1.376   .     S
N289   C309    1.311   .     S
C290   C291    1.483   .     S
C291   C292    1.369   .     S
C292   C293    1.468   .     S
C294   N285    1.321   1_655 S
C294   C295    1.465   .     S
C294   N286    1.350   1_655 S
C295   C296    1.383   .     S
C295   C303    1.390   .     S
C296   H297    0.929   .     S
C296   C298    1.380   .     S
C298   H299    0.929   .     S
C298   C300    1.383   .     S
C300   C301    1.381   .     S
C301   H302    0.931   .     S
C301   C303    1.384   .     S
C303   H304    0.930   .     S
C305   H306    0.930   .     S
C305   C307    1.345   .     S
C307   H308    0.930   .     S
C309   H310    0.929   .     S
O311   C324    1.250   .     S
O311   Ni377   2.087   1_565 S
O312   C324    1.269   .     S
O313   H314    0.819   .     S
O313   C321    1.289   .     S
O315   C321    1.210   .     S
N316   C323    1.375   .     S
N316   C325    1.321   1_565 S
N316   Ni377   2.145   1_565 S
N317   H318    0.861   1_565 S
N317   C322    1.360   .     S
N317   C325    1.350   1_565 S
H318   N317    0.861   1_545 S
N319   C331    1.432   .     S
N319   C336    1.380   1_655 S
N319   C340    1.349   .     S
N320   Ni378   2.064   1_655 S
N320   C338    1.376   1_655 S
N320   C340    1.311   .     S
C321   C322    1.483   .     S
C322   C323    1.369   .     S
C323   C324    1.468   .     S
C325   N316    1.321   1_545 S
C325   C326    1.465   .     S
C325   N317    1.350   1_545 S
C326   C327    1.383   .     S
C326   C334    1.390   .     S
C327   H328    0.929   .     S
C327   C329    1.380   .     S
C329   H330    0.929   .     S
C329   C331    1.383   .     S
C331   C332    1.381   .     S
C332   H333    0.931   .     S
C332   C334    1.384   .     S
C334   H335    0.930   .     S
C336   N319    1.380   1_455 S
C336   H337    0.930   .     S
C336   C338    1.345   .     S
C338   N320    1.376   1_455 S
C338   H339    0.930   .     S
C340   H341    0.929   .     S
O342   C355    1.250   .     S
O342   Ni376   2.087   .     S
O343   C355    1.269   .     S
O344   H345    0.819   .     S
O344   C352    1.289   .     S
O346   C352    1.210   .     S
N347   C354    1.375   .     S
N347   C356    1.321   .     S
N347   Ni376   2.145   .     S
N348   H349    0.861   .     S
N348   C353    1.360   .     S
N348   C356    1.350   .     S
N350   C362    1.432   .     S
N350   C367    1.380   1_545 S
N350   C371    1.349   .     S
N351   Ni377   2.064   .     S
N351   C369    1.376   1_545 S
N351   C371    1.311   .     S
C352   C353    1.483   .     S
C353   C354    1.369   .     S
C354   C355    1.468   .     S
C356   C357    1.465   .     S
C357   C358    1.383   .     S
C357   C365    1.390   .     S
C358   H359    0.929   .     S
C358   C360    1.380   .     S
C360   H361    0.929   .     S
C360   C362    1.383   .     S
C362   C363    1.381   .     S
C363   H364    0.931   .     S
C363   C365    1.384   .     S
C365   H366    0.930   .     S
C367   N350    1.380   1_565 S
C367   H368    0.930   .     S
C367   C369    1.345   .     S
C369   N351    1.376   1_565 S
C369   H370    0.930   .     S
C371   H372    0.929   .     S
Ni374  N165    2.064   1_545 S
Ni374  O1      2.087   1_545 S
Ni374  N6      2.145   1_545 S
Ni375  N72     2.064   1_455 S
Ni375  O94     2.087   1_455 S
Ni375  N99     2.145   1_455 S
Ni377  N227    2.064   1_545 S
Ni377  O311    2.087   1_545 S
Ni377  N316    2.145   1_545 S
Ni378  N320    2.064   1_455 S
Ni378  O218    2.087   1_455 S
Ni378  N223    2.145   1_455 S
