data_KUKMUA_FSR
_audit_creation_date              2024-06-11
_audit_creation_method            'Materials Studio'
_symmetry_space_group_name_H-M    'P1'
_symmetry_Int_Tables_number       1
_symmetry_cell_setting            triclinic
loop_
_symmetry_equiv_pos_as_xyz
  x,y,z
_cell_length_a                    24.7480
_cell_length_b                    32.3540
_cell_length_c                    21.7120
_cell_angle_alpha                 90.0000
_cell_angle_beta                  90.0000
_cell_angle_gamma                 90.0000
loop_
_atom_site_label
_atom_site_type_symbol
_atom_site_fract_x
_atom_site_fract_y
_atom_site_fract_z
_atom_site_U_iso_or_equiv
_atom_site_adp_type
_atom_site_occupancy
C1     C     0.59140   0.32290   0.20890   0.02467  Uani   1.00
C2     C     0.56850   0.30930   0.26280   0.02233  Uani   1.00
H3     H     0.54280   0.28840   0.26150   0.02700  Uiso   1.00
C4     C     0.58320   0.32630   0.32010   0.01400  Uani   1.00
C5     C     0.62480   0.35650   0.32100   0.03267  Uani   1.00
H6     H     0.63970   0.36540   0.35800   0.03900  Uiso   1.00
C7     C     0.64250   0.37230   0.26550   0.01767  Uani   1.00
C8     C     0.62550   0.35780   0.21040   0.01900  Uani   1.00
H9     H     0.63610   0.37070   0.17410   0.02300  Uiso   1.00
C10    C     0.57070   0.30670   0.14980   0.02033  Uani   1.00
C11    C     0.56550   0.30970   0.38200   0.02367  Uani   1.00
C12    C     0.82540   0.44430   0.63170   0.01433  Uani   1.00
C13    C     0.59780   0.40660   0.98240   0.04200  Uani   1.00
H14    H     0.56200   0.40530   0.96960   0.05000  Uiso   1.00
C15    C     0.68050   0.43950   0.98760   0.16933  Uani   1.00
C16    C     0.60470   0.46800   0.93000   0.10533  Uani   1.00
C17    C     0.84790   0.34410   0.29620   0.05900  Uani   1.00
H18    H     0.81350   0.34640   0.31320   0.07100  Uiso   1.00
C19    C     0.85590   0.27620   0.34530   0.08500  Uani   1.00
H20    H     0.88300   0.25510   0.34950   0.12800  Uiso   1.00
H21    H     0.82480   0.26500   0.32500   0.12800  Uiso   1.00
H22    H     0.84580   0.28610   0.38540   0.12800  Uiso   1.00
C23    C     0.93490   0.30620   0.29310   0.08367  Uani   1.00
H24    H     0.94810   0.27990   0.30680   0.12500  Uiso   1.00
H25    H     0.95500   0.32790   0.31280   0.12500  Uiso   1.00
H26    H     0.93910   0.30830   0.24930   0.12500  Uiso   1.00
C27    C     0.81640   0.43880   0.40060   0.02067  Uani   1.00
C28    C     0.87390   0.39180   0.45960   0.01667  Uani   1.00
H29    H     0.88110   0.37860   0.42250   0.02000  Uiso   1.00
C30    C     0.84090   0.42470   0.45930   0.02000  Uani   1.00
C31    C     0.82320   0.44130   0.51340   0.01707  Uani   1.00
H32    H     0.79920   0.46340   0.51300   0.02000  Uiso   1.00
C33    C     0.84120   0.42480   0.57020   0.02300  Uani   1.00
C34    C     0.88300   0.39400   0.56970   0.01833  Uani   1.00
H35    H     0.89970   0.38610   0.60620   0.02200  Uiso   1.00
C36    C     0.89820   0.37630   0.51390   0.02800  Uani   1.00
N37    N     0.87740   0.31010   0.30920   0.04467  Uani   1.00
N38    N     0.62560   0.43760   0.96680   0.05467  Uani   1.00
O39    O     0.54330   0.27450   0.15090   0.03133  Uani   1.00
O40    O     0.59380   0.32230   0.10190   0.01820  Uani   1.00
O41    O     0.69100   0.43290   0.20880   0.02300  Uani   1.00
O42    O     0.74430   0.38681   0.27310   0.03700  Uani   1.00
O43    O     0.68580   0.43730   0.32040   0.04467  Uani   1.00
O44    O     0.55160   0.26726   0.01370   0.01833  Uani   1.00
O45    O     0.45920   0.22908   0.01240   0.01833  Uani   1.00
O46    O     0.78580   0.47010   0.40120   0.02400  Uani   1.00
O47    O     0.61580   0.37780   0.01370   0.03867  Uani   1.00
O48    O     0.83160   0.42210   0.67620   0.03833  Uani   1.00
O49    O     0.79710   0.47570   0.63030   0.02400  Uani   1.00
O50    O     0.53320   0.27990   0.38090   0.02833  Uani   1.00
O51    O     0.57510   0.33190   0.42530   0.02337  Uani   1.00
O52    O     0.86560   0.37370   0.26080   0.04067  Uani   1.00
O53    O     0.83940   0.42330   0.35130   0.02600  Uani   1.00
O54    O     0.93900   0.31160   0.56820   0.05900  Uani   1.00
O55    O     0.99700   0.35730   0.51750   0.05533  Uani   1.00
S56    S     0.69501   0.41073   0.26680   0.02393  Uani   1.00
S57    S     0.94647   0.33648   0.51320   0.02447  Uani   1.00
Cu58   Cu    0.50808   0.24579   0.94505   0.02360  Uani   1.00
Cu59   Cu    0.82347   0.42376   0.26319   0.02247  Uani   1.00
Cu60   Cu    0.57767   0.32398   0.01391   0.02317  Uani   1.00
Cu61   Cu    0.50600   0.24623   0.08346   0.02390  Uani   1.00
O62    O     0.93920   0.31540   0.45880   0.05167  Uani   1.00
C63    C     0.59140   0.82290   0.70890   0.02467  Uani   1.00
C64    C     0.56850   0.80930   0.76280   0.02233  Uani   1.00
H65    H     0.54280   0.78840   0.76150   0.02700  Uiso   1.00
C66    C     0.58320   0.82630   0.82010   0.01400  Uani   1.00
C67    C     0.62480   0.85650   0.82100   0.03267  Uani   1.00
H68    H     0.63970   0.86540   0.85800   0.03900  Uiso   1.00
C69    C     0.64250   0.87230   0.76550   0.01767  Uani   1.00
C70    C     0.62550   0.85780   0.71040   0.01900  Uani   1.00
H71    H     0.63610   0.87070   0.67410   0.02300  Uiso   1.00
C72    C     0.57070   0.80670   0.64980   0.02033  Uani   1.00
C73    C     0.56550   0.80970   0.88200   0.02367  Uani   1.00
C74    C     0.82540   0.94430   0.13170   0.01433  Uani   1.00
C75    C     0.59780   0.90660   0.48240   0.04200  Uani   1.00
H76    H     0.56200   0.90530   0.46960   0.05000  Uiso   1.00
C77    C     0.68050   0.93950   0.48760   0.16933  Uani   1.00
C78    C     0.60470   0.96800   0.43000   0.10533  Uani   1.00
C79    C     0.84790   0.84410   0.79620   0.05900  Uani   1.00
H80    H     0.81350   0.84640   0.81320   0.07100  Uiso   1.00
C81    C     0.85590   0.77620   0.84530   0.08500  Uani   1.00
H82    H     0.88300   0.75510   0.84950   0.12800  Uiso   1.00
H83    H     0.82480   0.76500   0.82500   0.12800  Uiso   1.00
H84    H     0.84580   0.78610   0.88540   0.12800  Uiso   1.00
C85    C     0.93490   0.80620   0.79310   0.08367  Uani   1.00
H86    H     0.94810   0.77990   0.80680   0.12500  Uiso   1.00
H87    H     0.95500   0.82790   0.81280   0.12500  Uiso   1.00
H88    H     0.93910   0.80830   0.74930   0.12500  Uiso   1.00
C89    C     0.81640   0.93880   0.90060   0.02067  Uani   1.00
C90    C     0.87390   0.89180   0.95960   0.01667  Uani   1.00
H91    H     0.88110   0.87860   0.92250   0.02000  Uiso   1.00
C92    C     0.84090   0.92470   0.95930   0.02000  Uani   1.00
C93    C     0.82320   0.94130   0.01340   0.01707  Uani   1.00
H94    H     0.79920   0.96340   0.01300   0.02000  Uiso   1.00
C95    C     0.84120   0.92480   0.07020   0.02300  Uani   1.00
C96    C     0.88300   0.89400   0.06970   0.01833  Uani   1.00
H97    H     0.89970   0.88610   0.10620   0.02200  Uiso   1.00
C98    C     0.89820   0.87630   0.01390   0.02800  Uani   1.00
N99    N     0.87740   0.81010   0.80920   0.04467  Uani   1.00
N100   N     0.62560   0.93760   0.46680   0.05467  Uani   1.00
O101   O     0.54330   0.77450   0.65090   0.03133  Uani   1.00
O102   O     0.59380   0.82230   0.60190   0.01820  Uani   1.00
O103   O     0.69100   0.93290   0.70880   0.02300  Uani   1.00
O104   O     0.74430   0.88681   0.77310   0.03700  Uani   1.00
O105   O     0.68580   0.93730   0.82040   0.04467  Uani   1.00
O106   O     0.55160   0.76726   0.51370   0.01833  Uani   1.00
O107   O     0.45920   0.72908   0.51240   0.01833  Uani   1.00
O108   O     0.78580   0.97010   0.90120   0.02400  Uani   1.00
O109   O     0.61580   0.87780   0.51370   0.03867  Uani   1.00
O110   O     0.83160   0.92210   0.17620   0.03833  Uani   1.00
O111   O     0.79710   0.97570   0.13030   0.02400  Uani   1.00
O112   O     0.53320   0.77990   0.88090   0.02833  Uani   1.00
O113   O     0.57510   0.83190   0.92530   0.02337  Uani   1.00
O114   O     0.86560   0.87370   0.76080   0.04067  Uani   1.00
O115   O     0.83940   0.92330   0.85130   0.02600  Uani   1.00
O116   O     0.93900   0.81160   0.06820   0.05900  Uani   1.00
O117   O     0.99700   0.85730   0.01750   0.05533  Uani   1.00
S118   S     0.69501   0.91073   0.76680   0.02393  Uani   1.00
S119   S     0.94647   0.83648   0.01320   0.02447  Uani   1.00
Cu120  Cu    0.50808   0.74579   0.44505   0.02360  Uani   1.00
Cu121  Cu    0.82347   0.92376   0.76319   0.02247  Uani   1.00
Cu122  Cu    0.57767   0.82398   0.51391   0.02317  Uani   1.00
Cu123  Cu    0.50600   0.74623   0.58346   0.02390  Uani   1.00
O124   O     0.93920   0.81540   0.95880   0.05167  Uani   1.00
C125   C     0.09140   0.32290   0.70890   0.02467  Uani   1.00
C126   C     0.06850   0.30930   0.76280   0.02233  Uani   1.00
H127   H     0.04280   0.28840   0.76150   0.02700  Uiso   1.00
C128   C     0.08320   0.32630   0.82010   0.01400  Uani   1.00
C129   C     0.12480   0.35650   0.82100   0.03267  Uani   1.00
H130   H     0.13970   0.36540   0.85800   0.03900  Uiso   1.00
C131   C     0.14250   0.37230   0.76550   0.01767  Uani   1.00
C132   C     0.12550   0.35780   0.71040   0.01900  Uani   1.00
H133   H     0.13610   0.37070   0.67410   0.02300  Uiso   1.00
C134   C     0.07070   0.30670   0.64980   0.02033  Uani   1.00
C135   C     0.06550   0.30970   0.88200   0.02367  Uani   1.00
C136   C     0.32540   0.44430   0.13170   0.01433  Uani   1.00
C137   C     0.09780   0.40660   0.48240   0.04200  Uani   1.00
H138   H     0.06200   0.40530   0.46960   0.05000  Uiso   1.00
C139   C     0.18050   0.43950   0.48760   0.16933  Uani   1.00
C140   C     0.10470   0.46800   0.43000   0.10533  Uani   1.00
C141   C     0.34790   0.34410   0.79620   0.05900  Uani   1.00
H142   H     0.31350   0.34640   0.81320   0.07100  Uiso   1.00
C143   C     0.35590   0.27620   0.84530   0.08500  Uani   1.00
H144   H     0.38300   0.25510   0.84950   0.12800  Uiso   1.00
H145   H     0.32480   0.26500   0.82500   0.12800  Uiso   1.00
H146   H     0.34580   0.28610   0.88540   0.12800  Uiso   1.00
C147   C     0.43490   0.30620   0.79310   0.08367  Uani   1.00
H148   H     0.44810   0.27990   0.80680   0.12500  Uiso   1.00
H149   H     0.45500   0.32790   0.81280   0.12500  Uiso   1.00
H150   H     0.43910   0.30830   0.74930   0.12500  Uiso   1.00
C151   C     0.31640   0.43880   0.90060   0.02067  Uani   1.00
C152   C     0.37390   0.39180   0.95960   0.01667  Uani   1.00
H153   H     0.38110   0.37860   0.92250   0.02000  Uiso   1.00
C154   C     0.34090   0.42470   0.95930   0.02000  Uani   1.00
C155   C     0.32320   0.44130   0.01340   0.01707  Uani   1.00
H156   H     0.29920   0.46340   0.01300   0.02000  Uiso   1.00
C157   C     0.34120   0.42480   0.07020   0.02300  Uani   1.00
C158   C     0.38300   0.39400   0.06970   0.01833  Uani   1.00
H159   H     0.39970   0.38610   0.10620   0.02200  Uiso   1.00
C160   C     0.39820   0.37630   0.01390   0.02800  Uani   1.00
N161   N     0.37740   0.31010   0.80920   0.04467  Uani   1.00
N162   N     0.12560   0.43760   0.46680   0.05467  Uani   1.00
O163   O     0.04330   0.27450   0.65090   0.03133  Uani   1.00
O164   O     0.09380   0.32230   0.60190   0.01820  Uani   1.00
O165   O     0.19100   0.43290   0.70880   0.02300  Uani   1.00
O166   O     0.24430   0.38681   0.77310   0.03700  Uani   1.00
O167   O     0.18580   0.43730   0.82040   0.04467  Uani   1.00
O168   O     0.05160   0.26726   0.51370   0.01833  Uani   1.00
O169   O     0.95920   0.22908   0.51240   0.01833  Uani   1.00
O170   O     0.28580   0.47010   0.90120   0.02400  Uani   1.00
O171   O     0.11580   0.37780   0.51370   0.03867  Uani   1.00
O172   O     0.33160   0.42210   0.17620   0.03833  Uani   1.00
O173   O     0.29710   0.47570   0.13030   0.02400  Uani   1.00
O174   O     0.03320   0.27990   0.88090   0.02833  Uani   1.00
O175   O     0.07510   0.33190   0.92530   0.02337  Uani   1.00
O176   O     0.36560   0.37370   0.76080   0.04067  Uani   1.00
O177   O     0.33940   0.42330   0.85130   0.02600  Uani   1.00
O178   O     0.43900   0.31160   0.06820   0.05900  Uani   1.00
O179   O     0.49700   0.35730   0.01750   0.05533  Uani   1.00
S180   S     0.19501   0.41073   0.76680   0.02393  Uani   1.00
S181   S     0.44647   0.33648   0.01320   0.02447  Uani   1.00
Cu182  Cu    0.00808   0.24579   0.44505   0.02360  Uani   1.00
Cu183  Cu    0.32347   0.42376   0.76319   0.02247  Uani   1.00
Cu184  Cu    0.07767   0.32398   0.51391   0.02317  Uani   1.00
Cu185  Cu    0.00600   0.24623   0.58346   0.02390  Uani   1.00
O186   O     0.43920   0.31540   0.95880   0.05167  Uani   1.00
C187   C     0.09140   0.82290   0.20890   0.02467  Uani   1.00
C188   C     0.06850   0.80930   0.26280   0.02233  Uani   1.00
H189   H     0.04280   0.78840   0.26150   0.02700  Uiso   1.00
C190   C     0.08320   0.82630   0.32010   0.01400  Uani   1.00
C191   C     0.12480   0.85650   0.32100   0.03267  Uani   1.00
H192   H     0.13970   0.86540   0.35800   0.03900  Uiso   1.00
C193   C     0.14250   0.87230   0.26550   0.01767  Uani   1.00
C194   C     0.12550   0.85780   0.21040   0.01900  Uani   1.00
H195   H     0.13610   0.87070   0.17410   0.02300  Uiso   1.00
C196   C     0.07070   0.80670   0.14980   0.02033  Uani   1.00
C197   C     0.06550   0.80970   0.38200   0.02367  Uani   1.00
C198   C     0.32540   0.94430   0.63170   0.01433  Uani   1.00
C199   C     0.09780   0.90660   0.98240   0.04200  Uani   1.00
H200   H     0.06200   0.90530   0.96960   0.05000  Uiso   1.00
C201   C     0.18050   0.93950   0.98760   0.16933  Uani   1.00
C202   C     0.10470   0.96800   0.93000   0.10533  Uani   1.00
C203   C     0.34790   0.84410   0.29620   0.05900  Uani   1.00
H204   H     0.31350   0.84640   0.31320   0.07100  Uiso   1.00
C205   C     0.35590   0.77620   0.34530   0.08500  Uani   1.00
H206   H     0.38300   0.75510   0.34950   0.12800  Uiso   1.00
H207   H     0.32480   0.76500   0.32500   0.12800  Uiso   1.00
H208   H     0.34580   0.78610   0.38540   0.12800  Uiso   1.00
C209   C     0.43490   0.80620   0.29310   0.08367  Uani   1.00
H210   H     0.44810   0.77990   0.30680   0.12500  Uiso   1.00
H211   H     0.45500   0.82790   0.31280   0.12500  Uiso   1.00
H212   H     0.43910   0.80830   0.24930   0.12500  Uiso   1.00
C213   C     0.31640   0.93880   0.40060   0.02067  Uani   1.00
C214   C     0.37390   0.89180   0.45960   0.01667  Uani   1.00
H215   H     0.38110   0.87860   0.42250   0.02000  Uiso   1.00
C216   C     0.34090   0.92470   0.45930   0.02000  Uani   1.00
C217   C     0.32320   0.94130   0.51340   0.01707  Uani   1.00
H218   H     0.29920   0.96340   0.51300   0.02000  Uiso   1.00
C219   C     0.34120   0.92480   0.57020   0.02300  Uani   1.00
C220   C     0.38300   0.89400   0.56970   0.01833  Uani   1.00
H221   H     0.39970   0.88610   0.60620   0.02200  Uiso   1.00
C222   C     0.39820   0.87630   0.51390   0.02800  Uani   1.00
N223   N     0.37740   0.81010   0.30920   0.04467  Uani   1.00
N224   N     0.12560   0.93760   0.96680   0.05467  Uani   1.00
O225   O     0.04330   0.77450   0.15090   0.03133  Uani   1.00
O226   O     0.09380   0.82230   0.10190   0.01820  Uani   1.00
O227   O     0.19100   0.93290   0.20880   0.02300  Uani   1.00
O228   O     0.24430   0.88681   0.27310   0.03700  Uani   1.00
O229   O     0.18580   0.93730   0.32040   0.04467  Uani   1.00
O230   O     0.05160   0.76726   0.01370   0.01833  Uani   1.00
O231   O     0.95920   0.72908   0.01240   0.01833  Uani   1.00
O232   O     0.28580   0.97010   0.40120   0.02400  Uani   1.00
O233   O     0.11580   0.87780   0.01370   0.03867  Uani   1.00
O234   O     0.33160   0.92210   0.67620   0.03833  Uani   1.00
O235   O     0.29710   0.97570   0.63030   0.02400  Uani   1.00
O236   O     0.03320   0.77990   0.38090   0.02833  Uani   1.00
O237   O     0.07510   0.83190   0.42530   0.02337  Uani   1.00
O238   O     0.36560   0.87370   0.26080   0.04067  Uani   1.00
O239   O     0.33940   0.92330   0.35130   0.02600  Uani   1.00
O240   O     0.43900   0.81160   0.56820   0.05900  Uani   1.00
O241   O     0.49700   0.85730   0.51750   0.05533  Uani   1.00
S242   S     0.19501   0.91073   0.26680   0.02393  Uani   1.00
S243   S     0.44647   0.83648   0.51320   0.02447  Uani   1.00
Cu244  Cu    0.00808   0.74579   0.94505   0.02360  Uani   1.00
Cu245  Cu    0.32347   0.92376   0.26319   0.02247  Uani   1.00
Cu246  Cu    0.07767   0.82398   0.01391   0.02317  Uani   1.00
Cu247  Cu    0.00600   0.74623   0.08346   0.02390  Uani   1.00
O248   O     0.43920   0.81540   0.45880   0.05167  Uani   1.00
C249   C     0.40860   0.67710   0.20890   0.02467  Uani   1.00
C250   C     0.43150   0.69070   0.26280   0.02233  Uani   1.00
H251   H     0.45720   0.71160   0.26150   0.02700  Uiso   1.00
C252   C     0.41680   0.67370   0.32010   0.01400  Uani   1.00
C253   C     0.37520   0.64350   0.32100   0.03267  Uani   1.00
H254   H     0.36030   0.63460   0.35800   0.03900  Uiso   1.00
C255   C     0.35750   0.62770   0.26550   0.01767  Uani   1.00
C256   C     0.37450   0.64220   0.21040   0.01900  Uani   1.00
H257   H     0.36390   0.62930   0.17410   0.02300  Uiso   1.00
C258   C     0.42930   0.69330   0.14980   0.02033  Uani   1.00
C259   C     0.43450   0.69030   0.38200   0.02367  Uani   1.00
C260   C     0.17460   0.55570   0.63170   0.01433  Uani   1.00
C261   C     0.40220   0.59340   0.98240   0.04200  Uani   1.00
H262   H     0.43800   0.59470   0.96960   0.05000  Uiso   1.00
C263   C     0.31950   0.56050   0.98760   0.16933  Uani   1.00
C264   C     0.39530   0.53200   0.93000   0.10533  Uani   1.00
C265   C     0.15210   0.65590   0.29620   0.05900  Uani   1.00
H266   H     0.18650   0.65360   0.31320   0.07100  Uiso   1.00
C267   C     0.14410   0.72380   0.34530   0.08500  Uani   1.00
H268   H     0.11700   0.74490   0.34950   0.12800  Uiso   1.00
H269   H     0.17520   0.73500   0.32500   0.12800  Uiso   1.00
H270   H     0.15420   0.71390   0.38540   0.12800  Uiso   1.00
C271   C     0.06510   0.69380   0.29310   0.08367  Uani   1.00
H272   H     0.05190   0.72010   0.30680   0.12500  Uiso   1.00
H273   H     0.04500   0.67210   0.31280   0.12500  Uiso   1.00
H274   H     0.06090   0.69170   0.24930   0.12500  Uiso   1.00
C275   C     0.18360   0.56120   0.40060   0.02067  Uani   1.00
C276   C     0.12610   0.60820   0.45960   0.01667  Uani   1.00
H277   H     0.11890   0.62140   0.42250   0.02000  Uiso   1.00
C278   C     0.15910   0.57530   0.45930   0.02000  Uani   1.00
C279   C     0.17680   0.55870   0.51340   0.01707  Uani   1.00
H280   H     0.20080   0.53660   0.51300   0.02000  Uiso   1.00
C281   C     0.15880   0.57520   0.57020   0.02300  Uani   1.00
C282   C     0.11700   0.60600   0.56970   0.01833  Uani   1.00
H283   H     0.10030   0.61390   0.60620   0.02200  Uiso   1.00
C284   C     0.10180   0.62370   0.51390   0.02800  Uani   1.00
N285   N     0.12260   0.68990   0.30920   0.04467  Uani   1.00
N286   N     0.37440   0.56240   0.96680   0.05467  Uani   1.00
O287   O     0.45670   0.72550   0.15090   0.03133  Uani   1.00
O288   O     0.40620   0.67770   0.10190   0.01820  Uani   1.00
O289   O     0.30900   0.56710   0.20880   0.02300  Uani   1.00
O290   O     0.25570   0.61319   0.27310   0.03700  Uani   1.00
O291   O     0.31420   0.56270   0.32040   0.04467  Uani   1.00
O292   O     0.44840   0.73274   0.01370   0.01833  Uani   1.00
O293   O     0.54080   0.77092   0.01240   0.01833  Uani   1.00
O294   O     0.21420   0.52990   0.40120   0.02400  Uani   1.00
O295   O     0.38420   0.62220   0.01370   0.03867  Uani   1.00
O296   O     0.16840   0.57790   0.67620   0.03833  Uani   1.00
O297   O     0.20290   0.52430   0.63030   0.02400  Uani   1.00
O298   O     0.46680   0.72010   0.38090   0.02833  Uani   1.00
O299   O     0.42490   0.66810   0.42530   0.02337  Uani   1.00
O300   O     0.13440   0.62630   0.26080   0.04067  Uani   1.00
O301   O     0.16060   0.57670   0.35130   0.02600  Uani   1.00
O302   O     0.06100   0.68840   0.56820   0.05900  Uani   1.00
O303   O     0.00300   0.64270   0.51750   0.05533  Uani   1.00
S304   S     0.30499   0.58927   0.26680   0.02393  Uani   1.00
S305   S     0.05353   0.66352   0.51320   0.02447  Uani   1.00
Cu306  Cu    0.49192   0.75421   0.94505   0.02360  Uani   1.00
Cu307  Cu    0.17653   0.57624   0.26319   0.02247  Uani   1.00
Cu308  Cu    0.42233   0.67602   0.01391   0.02317  Uani   1.00
Cu309  Cu    0.49400   0.75377   0.08346   0.02390  Uani   1.00
O310   O     0.06080   0.68460   0.45880   0.05167  Uani   1.00
C311   C     0.40860   0.17710   0.70890   0.02467  Uani   1.00
C312   C     0.43150   0.19070   0.76280   0.02233  Uani   1.00
H313   H     0.45720   0.21160   0.76150   0.02700  Uiso   1.00
C314   C     0.41680   0.17370   0.82010   0.01400  Uani   1.00
C315   C     0.37520   0.14350   0.82100   0.03267  Uani   1.00
H316   H     0.36030   0.13460   0.85800   0.03900  Uiso   1.00
C317   C     0.35750   0.12770   0.76550   0.01767  Uani   1.00
C318   C     0.37450   0.14220   0.71040   0.01900  Uani   1.00
H319   H     0.36390   0.12930   0.67410   0.02300  Uiso   1.00
C320   C     0.42930   0.19330   0.64980   0.02033  Uani   1.00
C321   C     0.43450   0.19030   0.88200   0.02367  Uani   1.00
C322   C     0.17460   0.05570   0.13170   0.01433  Uani   1.00
C323   C     0.40220   0.09340   0.48240   0.04200  Uani   1.00
H324   H     0.43800   0.09470   0.46960   0.05000  Uiso   1.00
C325   C     0.31950   0.06050   0.48760   0.16933  Uani   1.00
C326   C     0.39530   0.03200   0.43000   0.10533  Uani   1.00
C327   C     0.15210   0.15590   0.79620   0.05900  Uani   1.00
H328   H     0.18650   0.15360   0.81320   0.07100  Uiso   1.00
C329   C     0.14410   0.22380   0.84530   0.08500  Uani   1.00
H330   H     0.11700   0.24490   0.84950   0.12800  Uiso   1.00
H331   H     0.17520   0.23500   0.82500   0.12800  Uiso   1.00
H332   H     0.15420   0.21390   0.88540   0.12800  Uiso   1.00
C333   C     0.06510   0.19380   0.79310   0.08367  Uani   1.00
H334   H     0.05190   0.22010   0.80680   0.12500  Uiso   1.00
H335   H     0.04500   0.17210   0.81280   0.12500  Uiso   1.00
H336   H     0.06090   0.19170   0.74930   0.12500  Uiso   1.00
C337   C     0.18360   0.06120   0.90060   0.02067  Uani   1.00
C338   C     0.12610   0.10820   0.95960   0.01667  Uani   1.00
H339   H     0.11890   0.12140   0.92250   0.02000  Uiso   1.00
C340   C     0.15910   0.07530   0.95930   0.02000  Uani   1.00
C341   C     0.17680   0.05870   0.01340   0.01707  Uani   1.00
H342   H     0.20080   0.03660   0.01300   0.02000  Uiso   1.00
C343   C     0.15880   0.07520   0.07020   0.02300  Uani   1.00
C344   C     0.11700   0.10600   0.06970   0.01833  Uani   1.00
H345   H     0.10030   0.11390   0.10620   0.02200  Uiso   1.00
C346   C     0.10180   0.12370   0.01390   0.02800  Uani   1.00
N347   N     0.12260   0.18990   0.80920   0.04467  Uani   1.00
N348   N     0.37440   0.06240   0.46680   0.05467  Uani   1.00
O349   O     0.45670   0.22550   0.65090   0.03133  Uani   1.00
O350   O     0.40620   0.17770   0.60190   0.01820  Uani   1.00
O351   O     0.30900   0.06710   0.70880   0.02300  Uani   1.00
O352   O     0.25570   0.11319   0.77310   0.03700  Uani   1.00
O353   O     0.31420   0.06270   0.82040   0.04467  Uani   1.00
O354   O     0.44840   0.23274   0.51370   0.01833  Uani   1.00
O355   O     0.54080   0.27092   0.51240   0.01833  Uani   1.00
O356   O     0.21420   0.02990   0.90120   0.02400  Uani   1.00
O357   O     0.38420   0.12220   0.51370   0.03867  Uani   1.00
O358   O     0.16840   0.07790   0.17620   0.03833  Uani   1.00
O359   O     0.20290   0.02430   0.13030   0.02400  Uani   1.00
O360   O     0.46680   0.22010   0.88090   0.02833  Uani   1.00
O361   O     0.42490   0.16810   0.92530   0.02337  Uani   1.00
O362   O     0.13440   0.12630   0.76080   0.04067  Uani   1.00
O363   O     0.16060   0.07670   0.85130   0.02600  Uani   1.00
O364   O     0.06100   0.18840   0.06820   0.05900  Uani   1.00
O365   O     0.00300   0.14270   0.01750   0.05533  Uani   1.00
S366   S     0.30499   0.08927   0.76680   0.02393  Uani   1.00
S367   S     0.05353   0.16352   0.01320   0.02447  Uani   1.00
Cu368  Cu    0.49192   0.25421   0.44505   0.02360  Uani   1.00
Cu369  Cu    0.17653   0.07624   0.76319   0.02247  Uani   1.00
Cu370  Cu    0.42233   0.17602   0.51391   0.02317  Uani   1.00
Cu371  Cu    0.49400   0.25377   0.58346   0.02390  Uani   1.00
O372   O     0.06080   0.18460   0.95880   0.05167  Uani   1.00
C373   C     0.90860   0.67710   0.70890   0.02467  Uani   1.00
C374   C     0.93150   0.69070   0.76280   0.02233  Uani   1.00
H375   H     0.95720   0.71160   0.76150   0.02700  Uiso   1.00
C376   C     0.91680   0.67370   0.82010   0.01400  Uani   1.00
C377   C     0.87520   0.64350   0.82100   0.03267  Uani   1.00
H378   H     0.86030   0.63460   0.85800   0.03900  Uiso   1.00
C379   C     0.85750   0.62770   0.76550   0.01767  Uani   1.00
C380   C     0.87450   0.64220   0.71040   0.01900  Uani   1.00
H381   H     0.86390   0.62930   0.67410   0.02300  Uiso   1.00
C382   C     0.92930   0.69330   0.64980   0.02033  Uani   1.00
C383   C     0.93450   0.69030   0.88200   0.02367  Uani   1.00
C384   C     0.67460   0.55570   0.13170   0.01433  Uani   1.00
C385   C     0.90220   0.59340   0.48240   0.04200  Uani   1.00
H386   H     0.93800   0.59470   0.46960   0.05000  Uiso   1.00
C387   C     0.81950   0.56050   0.48760   0.16933  Uani   1.00
C388   C     0.89530   0.53200   0.43000   0.10533  Uani   1.00
C389   C     0.65210   0.65590   0.79620   0.05900  Uani   1.00
H390   H     0.68650   0.65360   0.81320   0.07100  Uiso   1.00
C391   C     0.64410   0.72380   0.84530   0.08500  Uani   1.00
H392   H     0.61700   0.74490   0.84950   0.12800  Uiso   1.00
H393   H     0.67520   0.73500   0.82500   0.12800  Uiso   1.00
H394   H     0.65420   0.71390   0.88540   0.12800  Uiso   1.00
C395   C     0.56510   0.69380   0.79310   0.08367  Uani   1.00
H396   H     0.55190   0.72010   0.80680   0.12500  Uiso   1.00
H397   H     0.54500   0.67210   0.81280   0.12500  Uiso   1.00
H398   H     0.56090   0.69170   0.74930   0.12500  Uiso   1.00
C399   C     0.68360   0.56120   0.90060   0.02067  Uani   1.00
C400   C     0.62610   0.60820   0.95960   0.01667  Uani   1.00
H401   H     0.61890   0.62140   0.92250   0.02000  Uiso   1.00
C402   C     0.65910   0.57530   0.95930   0.02000  Uani   1.00
C403   C     0.67680   0.55870   0.01340   0.01707  Uani   1.00
H404   H     0.70080   0.53660   0.01300   0.02000  Uiso   1.00
C405   C     0.65880   0.57520   0.07020   0.02300  Uani   1.00
C406   C     0.61700   0.60600   0.06970   0.01833  Uani   1.00
H407   H     0.60030   0.61390   0.10620   0.02200  Uiso   1.00
C408   C     0.60180   0.62370   0.01390   0.02800  Uani   1.00
N409   N     0.62260   0.68990   0.80920   0.04467  Uani   1.00
N410   N     0.87440   0.56240   0.46680   0.05467  Uani   1.00
O411   O     0.95670   0.72550   0.65090   0.03133  Uani   1.00
O412   O     0.90620   0.67770   0.60190   0.01820  Uani   1.00
O413   O     0.80900   0.56710   0.70880   0.02300  Uani   1.00
O414   O     0.75570   0.61319   0.77310   0.03700  Uani   1.00
O415   O     0.81420   0.56270   0.82040   0.04467  Uani   1.00
O416   O     0.94840   0.73274   0.51370   0.01833  Uani   1.00
O417   O     0.04080   0.77092   0.51240   0.01833  Uani   1.00
O418   O     0.71420   0.52990   0.90120   0.02400  Uani   1.00
O419   O     0.88420   0.62220   0.51370   0.03867  Uani   1.00
O420   O     0.66840   0.57790   0.17620   0.03833  Uani   1.00
O421   O     0.70290   0.52430   0.13030   0.02400  Uani   1.00
O422   O     0.96680   0.72010   0.88090   0.02833  Uani   1.00
O423   O     0.92490   0.66810   0.92530   0.02337  Uani   1.00
O424   O     0.63440   0.62630   0.76080   0.04067  Uani   1.00
O425   O     0.66060   0.57670   0.85130   0.02600  Uani   1.00
O426   O     0.56100   0.68840   0.06820   0.05900  Uani   1.00
O427   O     0.50300   0.64270   0.01750   0.05533  Uani   1.00
S428   S     0.80499   0.58927   0.76680   0.02393  Uani   1.00
S429   S     0.55353   0.66352   0.01320   0.02447  Uani   1.00
Cu430  Cu    0.99192   0.75421   0.44505   0.02360  Uani   1.00
Cu431  Cu    0.67653   0.57624   0.76319   0.02247  Uani   1.00
Cu432  Cu    0.92233   0.67602   0.51391   0.02317  Uani   1.00
Cu433  Cu    0.99400   0.75377   0.58346   0.02390  Uani   1.00
O434   O     0.56080   0.68460   0.95880   0.05167  Uani   1.00
C435   C     0.90860   0.17710   0.20890   0.02467  Uani   1.00
C436   C     0.93150   0.19070   0.26280   0.02233  Uani   1.00
H437   H     0.95720   0.21160   0.26150   0.02700  Uiso   1.00
C438   C     0.91680   0.17370   0.32010   0.01400  Uani   1.00
C439   C     0.87520   0.14350   0.32100   0.03267  Uani   1.00
H440   H     0.86030   0.13460   0.35800   0.03900  Uiso   1.00
C441   C     0.85750   0.12770   0.26550   0.01767  Uani   1.00
C442   C     0.87450   0.14220   0.21040   0.01900  Uani   1.00
H443   H     0.86390   0.12930   0.17410   0.02300  Uiso   1.00
C444   C     0.92930   0.19330   0.14980   0.02033  Uani   1.00
C445   C     0.93450   0.19030   0.38200   0.02367  Uani   1.00
C446   C     0.67460   0.05570   0.63170   0.01433  Uani   1.00
C447   C     0.90220   0.09340   0.98240   0.04200  Uani   1.00
H448   H     0.93800   0.09470   0.96960   0.05000  Uiso   1.00
C449   C     0.81950   0.06050   0.98760   0.16933  Uani   1.00
C450   C     0.89530   0.03200   0.93000   0.10533  Uani   1.00
C451   C     0.65210   0.15590   0.29620   0.05900  Uani   1.00
H452   H     0.68650   0.15360   0.31320   0.07100  Uiso   1.00
C453   C     0.64410   0.22380   0.34530   0.08500  Uani   1.00
H454   H     0.61700   0.24490   0.34950   0.12800  Uiso   1.00
H455   H     0.67520   0.23500   0.32500   0.12800  Uiso   1.00
H456   H     0.65420   0.21390   0.38540   0.12800  Uiso   1.00
C457   C     0.56510   0.19380   0.29310   0.08367  Uani   1.00
H458   H     0.55190   0.22010   0.30680   0.12500  Uiso   1.00
H459   H     0.54500   0.17210   0.31280   0.12500  Uiso   1.00
H460   H     0.56090   0.19170   0.24930   0.12500  Uiso   1.00
C461   C     0.68360   0.06120   0.40060   0.02067  Uani   1.00
C462   C     0.62610   0.10820   0.45960   0.01667  Uani   1.00
H463   H     0.61890   0.12140   0.42250   0.02000  Uiso   1.00
C464   C     0.65910   0.07530   0.45930   0.02000  Uani   1.00
C465   C     0.67680   0.05870   0.51340   0.01707  Uani   1.00
H466   H     0.70080   0.03660   0.51300   0.02000  Uiso   1.00
C467   C     0.65880   0.07520   0.57020   0.02300  Uani   1.00
C468   C     0.61700   0.10600   0.56970   0.01833  Uani   1.00
H469   H     0.60030   0.11390   0.60620   0.02200  Uiso   1.00
C470   C     0.60180   0.12370   0.51390   0.02800  Uani   1.00
N471   N     0.62260   0.18990   0.30920   0.04467  Uani   1.00
N472   N     0.87440   0.06240   0.96680   0.05467  Uani   1.00
O473   O     0.95670   0.22550   0.15090   0.03133  Uani   1.00
O474   O     0.90620   0.17770   0.10190   0.01820  Uani   1.00
O475   O     0.80900   0.06710   0.20880   0.02300  Uani   1.00
O476   O     0.75570   0.11319   0.27310   0.03700  Uani   1.00
O477   O     0.81420   0.06270   0.32040   0.04467  Uani   1.00
O478   O     0.94840   0.23274   0.01370   0.01833  Uani   1.00
O479   O     0.04080   0.27092   0.01240   0.01833  Uani   1.00
O480   O     0.71420   0.02990   0.40120   0.02400  Uani   1.00
O481   O     0.88420   0.12220   0.01370   0.03867  Uani   1.00
O482   O     0.66840   0.07790   0.67620   0.03833  Uani   1.00
O483   O     0.70290   0.02430   0.63030   0.02400  Uani   1.00
O484   O     0.96680   0.22010   0.38090   0.02833  Uani   1.00
O485   O     0.92490   0.16810   0.42530   0.02337  Uani   1.00
O486   O     0.63440   0.12630   0.26080   0.04067  Uani   1.00
O487   O     0.66060   0.07670   0.35130   0.02600  Uani   1.00
O488   O     0.56100   0.18840   0.56820   0.05900  Uani   1.00
O489   O     0.50300   0.14270   0.51750   0.05533  Uani   1.00
S490   S     0.80499   0.08927   0.26680   0.02393  Uani   1.00
S491   S     0.55353   0.16352   0.51320   0.02447  Uani   1.00
Cu492  Cu    0.99192   0.25421   0.94505   0.02360  Uani   1.00
Cu493  Cu    0.67653   0.07624   0.26319   0.02247  Uani   1.00
Cu494  Cu    0.92233   0.17602   0.01391   0.02317  Uani   1.00
Cu495  Cu    0.99400   0.25377   0.08346   0.02390  Uani   1.00
O496   O     0.56080   0.18460   0.45880   0.05167  Uani   1.00
C497   C     0.84140   0.92710   0.45890   0.02467  Uani   1.00
C498   C     0.81850   0.94070   0.51280   0.02233  Uani   1.00
H499   H     0.79280   0.96160   0.51150   0.02700  Uiso   1.00
C500   C     0.83320   0.92370   0.57010   0.01400  Uani   1.00
C501   C     0.87480   0.89350   0.57100   0.03267  Uani   1.00
H502   H     0.88970   0.88460   0.60800   0.03900  Uiso   1.00
C503   C     0.89250   0.87770   0.51550   0.01767  Uani   1.00
C504   C     0.87550   0.89220   0.46040   0.01900  Uani   1.00
H505   H     0.88610   0.87930   0.42410   0.02300  Uiso   1.00
C506   C     0.82070   0.94330   0.39980   0.02033  Uani   1.00
C507   C     0.81550   0.94030   0.63200   0.02367  Uani   1.00
C508   C     0.07540   0.80570   0.88170   0.01433  Uani   1.00
C509   C     0.84780   0.84340   0.23240   0.04200  Uani   1.00
H510   H     0.81200   0.84470   0.21960   0.05000  Uiso   1.00
C511   C     0.93050   0.81050   0.23760   0.16933  Uani   1.00
C512   C     0.85470   0.78200   0.18000   0.10533  Uani   1.00
C513   C     0.09790   0.90590   0.54620   0.05900  Uani   1.00
H514   H     0.06350   0.90360   0.56320   0.07100  Uiso   1.00
C515   C     0.10590   0.97380   0.59530   0.08500  Uani   1.00
H516   H     0.13300   0.99490   0.59950   0.12800  Uiso   1.00
H517   H     0.07480   0.98500   0.57500   0.12800  Uiso   1.00
H518   H     0.09580   0.96390   0.63540   0.12800  Uiso   1.00
C519   C     0.18490   0.94380   0.54310   0.08367  Uani   1.00
H520   H     0.19810   0.97010   0.55680   0.12500  Uiso   1.00
H521   H     0.20500   0.92210   0.56280   0.12500  Uiso   1.00
H522   H     0.18910   0.94170   0.49930   0.12500  Uiso   1.00
C523   C     0.06640   0.81120   0.65060   0.02067  Uani   1.00
C524   C     0.12390   0.85820   0.70960   0.01667  Uani   1.00
H525   H     0.13110   0.87140   0.67250   0.02000  Uiso   1.00
C526   C     0.09090   0.82530   0.70930   0.02000  Uani   1.00
C527   C     0.07320   0.80870   0.76340   0.01707  Uani   1.00
H528   H     0.04920   0.78660   0.76300   0.02000  Uiso   1.00
C529   C     0.09120   0.82520   0.82020   0.02300  Uani   1.00
C530   C     0.13300   0.85600   0.81970   0.01833  Uani   1.00
H531   H     0.14970   0.86390   0.85620   0.02200  Uiso   1.00
C532   C     0.14820   0.87370   0.76390   0.02800  Uani   1.00
N533   N     0.12740   0.93990   0.55920   0.04467  Uani   1.00
N534   N     0.87560   0.81240   0.21680   0.05467  Uani   1.00
O535   O     0.79330   0.97550   0.40090   0.03133  Uani   1.00
O536   O     0.84380   0.92770   0.35190   0.01820  Uani   1.00
O537   O     0.94100   0.81710   0.45880   0.02300  Uani   1.00
O538   O     0.99430   0.86319   0.52310   0.03700  Uani   1.00
O539   O     0.93580   0.81270   0.57040   0.04467  Uani   1.00
O540   O     0.80160   0.98274   0.26370   0.01833  Uani   1.00
O541   O     0.70920   0.02092   0.26240   0.01833  Uani   1.00
O542   O     0.03580   0.77990   0.65120   0.02400  Uani   1.00
O543   O     0.86580   0.87220   0.26370   0.03867  Uani   1.00
O544   O     0.08160   0.82790   0.92620   0.03833  Uani   1.00
O545   O     0.04710   0.77430   0.88030   0.02400  Uani   1.00
O546   O     0.78320   0.97010   0.63090   0.02833  Uani   1.00
O547   O     0.82510   0.91810   0.67530   0.02337  Uani   1.00
O548   O     0.11560   0.87630   0.51080   0.04067  Uani   1.00
O549   O     0.08940   0.82670   0.60130   0.02600  Uani   1.00
O550   O     0.18900   0.93840   0.81820   0.05900  Uani   1.00
O551   O     0.24700   0.89270   0.76750   0.05533  Uani   1.00
S552   S     0.94501   0.83927   0.51680   0.02393  Uani   1.00
S553   S     0.19647   0.91352   0.76320   0.02447  Uani   1.00
Cu554  Cu    0.75808   0.00421   0.19505   0.02360  Uani   1.00
Cu555  Cu    0.07347   0.82624   0.51319   0.02247  Uani   1.00
Cu556  Cu    0.82767   0.92602   0.26391   0.02317  Uani   1.00
Cu557  Cu    0.75600   0.00377   0.33346   0.02390  Uani   1.00
O558   O     0.18920   0.93460   0.70880   0.05167  Uani   1.00
C559   C     0.84140   0.42710   0.95890   0.02467  Uani   1.00
C560   C     0.81850   0.44070   0.01280   0.02233  Uani   1.00
H561   H     0.79280   0.46160   0.01150   0.02700  Uiso   1.00
C562   C     0.83320   0.42370   0.07010   0.01400  Uani   1.00
C563   C     0.87480   0.39350   0.07100   0.03267  Uani   1.00
H564   H     0.88970   0.38460   0.10800   0.03900  Uiso   1.00
C565   C     0.89250   0.37770   0.01550   0.01767  Uani   1.00
C566   C     0.87550   0.39220   0.96040   0.01900  Uani   1.00
H567   H     0.88610   0.37930   0.92410   0.02300  Uiso   1.00
C568   C     0.82070   0.44330   0.89980   0.02033  Uani   1.00
C569   C     0.81550   0.44030   0.13200   0.02367  Uani   1.00
C570   C     0.07540   0.30570   0.38170   0.01433  Uani   1.00
C571   C     0.84780   0.34340   0.73240   0.04200  Uani   1.00
H572   H     0.81200   0.34470   0.71960   0.05000  Uiso   1.00
C573   C     0.93050   0.31050   0.73760   0.16933  Uani   1.00
C574   C     0.85470   0.28200   0.68000   0.10533  Uani   1.00
C575   C     0.09790   0.40590   0.04620   0.05900  Uani   1.00
H576   H     0.06350   0.40360   0.06320   0.07100  Uiso   1.00
C577   C     0.10590   0.47380   0.09530   0.08500  Uani   1.00
H578   H     0.13300   0.49490   0.09950   0.12800  Uiso   1.00
H579   H     0.07480   0.48500   0.07500   0.12800  Uiso   1.00
H580   H     0.09580   0.46390   0.13540   0.12800  Uiso   1.00
C581   C     0.18490   0.44380   0.04310   0.08367  Uani   1.00
H582   H     0.19810   0.47010   0.05680   0.12500  Uiso   1.00
H583   H     0.20500   0.42210   0.06280   0.12500  Uiso   1.00
H584   H     0.18910   0.44170   0.99930   0.12500  Uiso   1.00
C585   C     0.06640   0.31120   0.15060   0.02067  Uani   1.00
C586   C     0.12390   0.35820   0.20960   0.01667  Uani   1.00
H587   H     0.13110   0.37140   0.17250   0.02000  Uiso   1.00
C588   C     0.09090   0.32530   0.20930   0.02000  Uani   1.00
C589   C     0.07320   0.30870   0.26340   0.01707  Uani   1.00
H590   H     0.04920   0.28660   0.26300   0.02000  Uiso   1.00
C591   C     0.09120   0.32520   0.32020   0.02300  Uani   1.00
C592   C     0.13300   0.35600   0.31970   0.01833  Uani   1.00
H593   H     0.14970   0.36390   0.35620   0.02200  Uiso   1.00
C594   C     0.14820   0.37370   0.26390   0.02800  Uani   1.00
N595   N     0.12740   0.43990   0.05920   0.04467  Uani   1.00
N596   N     0.87560   0.31240   0.71680   0.05467  Uani   1.00
O597   O     0.79330   0.47550   0.90090   0.03133  Uani   1.00
O598   O     0.84380   0.42770   0.85190   0.01820  Uani   1.00
O599   O     0.94100   0.31710   0.95880   0.02300  Uani   1.00
O600   O     0.99430   0.36319   0.02310   0.03700  Uani   1.00
O601   O     0.93580   0.31270   0.07040   0.04467  Uani   1.00
O602   O     0.80160   0.48274   0.76370   0.01833  Uani   1.00
O603   O     0.70920   0.52092   0.76240   0.01833  Uani   1.00
O604   O     0.03580   0.27990   0.15120   0.02400  Uani   1.00
O605   O     0.86580   0.37220   0.76370   0.03867  Uani   1.00
O606   O     0.08160   0.32790   0.42620   0.03833  Uani   1.00
O607   O     0.04710   0.27430   0.38030   0.02400  Uani   1.00
O608   O     0.78320   0.47010   0.13090   0.02833  Uani   1.00
O609   O     0.82510   0.41810   0.17530   0.02337  Uani   1.00
O610   O     0.11560   0.37630   0.01080   0.04067  Uani   1.00
O611   O     0.08940   0.32670   0.10130   0.02600  Uani   1.00
O612   O     0.18900   0.43840   0.31820   0.05900  Uani   1.00
O613   O     0.24700   0.39270   0.26750   0.05533  Uani   1.00
S614   S     0.94501   0.33927   0.01680   0.02393  Uani   1.00
S615   S     0.19647   0.41352   0.26320   0.02447  Uani   1.00
Cu616  Cu    0.75808   0.50421   0.69505   0.02360  Uani   1.00
Cu617  Cu    0.07347   0.32624   0.01319   0.02247  Uani   1.00
Cu618  Cu    0.82767   0.42602   0.76391   0.02317  Uani   1.00
Cu619  Cu    0.75600   0.50377   0.83346   0.02390  Uani   1.00
O620   O     0.18920   0.43460   0.20880   0.05167  Uani   1.00
C621   C     0.34140   0.92710   0.95890   0.02467  Uani   1.00
C622   C     0.31850   0.94070   0.01280   0.02233  Uani   1.00
H623   H     0.29280   0.96160   0.01150   0.02700  Uiso   1.00
C624   C     0.33320   0.92370   0.07010   0.01400  Uani   1.00
C625   C     0.37480   0.89350   0.07100   0.03267  Uani   1.00
H626   H     0.38970   0.88460   0.10800   0.03900  Uiso   1.00
C627   C     0.39250   0.87770   0.01550   0.01767  Uani   1.00
C628   C     0.37550   0.89220   0.96040   0.01900  Uani   1.00
H629   H     0.38610   0.87930   0.92410   0.02300  Uiso   1.00
C630   C     0.32070   0.94330   0.89980   0.02033  Uani   1.00
C631   C     0.31550   0.94030   0.13200   0.02367  Uani   1.00
C632   C     0.57540   0.80570   0.38170   0.01433  Uani   1.00
C633   C     0.34780   0.84340   0.73240   0.04200  Uani   1.00
H634   H     0.31200   0.84470   0.71960   0.05000  Uiso   1.00
C635   C     0.43050   0.81050   0.73760   0.16933  Uani   1.00
C636   C     0.35470   0.78200   0.68000   0.10533  Uani   1.00
C637   C     0.59790   0.90590   0.04620   0.05900  Uani   1.00
H638   H     0.56350   0.90360   0.06320   0.07100  Uiso   1.00
C639   C     0.60590   0.97380   0.09530   0.08500  Uani   1.00
H640   H     0.63300   0.99490   0.09950   0.12800  Uiso   1.00
H641   H     0.57480   0.98500   0.07500   0.12800  Uiso   1.00
H642   H     0.59580   0.96390   0.13540   0.12800  Uiso   1.00
C643   C     0.68490   0.94380   0.04310   0.08367  Uani   1.00
H644   H     0.69810   0.97010   0.05680   0.12500  Uiso   1.00
H645   H     0.70500   0.92210   0.06280   0.12500  Uiso   1.00
H646   H     0.68910   0.94170   0.99930   0.12500  Uiso   1.00
C647   C     0.56640   0.81120   0.15060   0.02067  Uani   1.00
C648   C     0.62390   0.85820   0.20960   0.01667  Uani   1.00
H649   H     0.63110   0.87140   0.17250   0.02000  Uiso   1.00
C650   C     0.59090   0.82530   0.20930   0.02000  Uani   1.00
C651   C     0.57320   0.80870   0.26340   0.01707  Uani   1.00
H652   H     0.54920   0.78660   0.26300   0.02000  Uiso   1.00
C653   C     0.59120   0.82520   0.32020   0.02300  Uani   1.00
C654   C     0.63300   0.85600   0.31970   0.01833  Uani   1.00
H655   H     0.64970   0.86390   0.35620   0.02200  Uiso   1.00
C656   C     0.64820   0.87370   0.26390   0.02800  Uani   1.00
N657   N     0.62740   0.93990   0.05920   0.04467  Uani   1.00
N658   N     0.37560   0.81240   0.71680   0.05467  Uani   1.00
O659   O     0.29330   0.97550   0.90090   0.03133  Uani   1.00
O660   O     0.34380   0.92770   0.85190   0.01820  Uani   1.00
O661   O     0.44100   0.81710   0.95880   0.02300  Uani   1.00
O662   O     0.49430   0.86319   0.02310   0.03700  Uani   1.00
O663   O     0.43580   0.81270   0.07040   0.04467  Uani   1.00
O664   O     0.30160   0.98274   0.76370   0.01833  Uani   1.00
O665   O     0.20920   0.02092   0.76240   0.01833  Uani   1.00
O666   O     0.53580   0.77990   0.15120   0.02400  Uani   1.00
O667   O     0.36580   0.87220   0.76370   0.03867  Uani   1.00
O668   O     0.58160   0.82790   0.42620   0.03833  Uani   1.00
O669   O     0.54710   0.77430   0.38030   0.02400  Uani   1.00
O670   O     0.28320   0.97010   0.13090   0.02833  Uani   1.00
O671   O     0.32510   0.91810   0.17530   0.02337  Uani   1.00
O672   O     0.61560   0.87630   0.01080   0.04067  Uani   1.00
O673   O     0.58940   0.82670   0.10130   0.02600  Uani   1.00
O674   O     0.68900   0.93840   0.31820   0.05900  Uani   1.00
O675   O     0.74700   0.89270   0.26750   0.05533  Uani   1.00
S676   S     0.44501   0.83927   0.01680   0.02393  Uani   1.00
S677   S     0.69647   0.91352   0.26320   0.02447  Uani   1.00
Cu678  Cu    0.25808   0.00421   0.69505   0.02360  Uani   1.00
Cu679  Cu    0.57347   0.82624   0.01319   0.02247  Uani   1.00
Cu680  Cu    0.32767   0.92602   0.76391   0.02317  Uani   1.00
Cu681  Cu    0.25600   0.00377   0.83346   0.02390  Uani   1.00
O682   O     0.68920   0.93460   0.20880   0.05167  Uani   1.00
C683   C     0.34140   0.42710   0.45890   0.02467  Uani   1.00
C684   C     0.31850   0.44070   0.51280   0.02233  Uani   1.00
H685   H     0.29280   0.46160   0.51150   0.02700  Uiso   1.00
C686   C     0.33320   0.42370   0.57010   0.01400  Uani   1.00
C687   C     0.37480   0.39350   0.57100   0.03267  Uani   1.00
H688   H     0.38970   0.38460   0.60800   0.03900  Uiso   1.00
C689   C     0.39250   0.37770   0.51550   0.01767  Uani   1.00
C690   C     0.37550   0.39220   0.46040   0.01900  Uani   1.00
H691   H     0.38610   0.37930   0.42410   0.02300  Uiso   1.00
C692   C     0.32070   0.44330   0.39980   0.02033  Uani   1.00
C693   C     0.31550   0.44030   0.63200   0.02367  Uani   1.00
C694   C     0.57540   0.30570   0.88170   0.01433  Uani   1.00
C695   C     0.34780   0.34340   0.23240   0.04200  Uani   1.00
H696   H     0.31200   0.34470   0.21960   0.05000  Uiso   1.00
C697   C     0.43050   0.31050   0.23760   0.16933  Uani   1.00
C698   C     0.35470   0.28200   0.18000   0.10533  Uani   1.00
C699   C     0.59790   0.40590   0.54620   0.05900  Uani   1.00
H700   H     0.56350   0.40360   0.56320   0.07100  Uiso   1.00
C701   C     0.60590   0.47380   0.59530   0.08500  Uani   1.00
H702   H     0.63300   0.49490   0.59950   0.12800  Uiso   1.00
H703   H     0.57480   0.48500   0.57500   0.12800  Uiso   1.00
H704   H     0.59580   0.46390   0.63540   0.12800  Uiso   1.00
C705   C     0.68490   0.44380   0.54310   0.08367  Uani   1.00
H706   H     0.69810   0.47010   0.55680   0.12500  Uiso   1.00
H707   H     0.70500   0.42210   0.56280   0.12500  Uiso   1.00
H708   H     0.68910   0.44170   0.49930   0.12500  Uiso   1.00
C709   C     0.56640   0.31120   0.65060   0.02067  Uani   1.00
C710   C     0.62390   0.35820   0.70960   0.01667  Uani   1.00
H711   H     0.63110   0.37140   0.67250   0.02000  Uiso   1.00
C712   C     0.59090   0.32530   0.70930   0.02000  Uani   1.00
C713   C     0.57320   0.30870   0.76340   0.01707  Uani   1.00
H714   H     0.54920   0.28660   0.76300   0.02000  Uiso   1.00
C715   C     0.59120   0.32520   0.82020   0.02300  Uani   1.00
C716   C     0.63300   0.35600   0.81970   0.01833  Uani   1.00
H717   H     0.64970   0.36390   0.85620   0.02200  Uiso   1.00
C718   C     0.64820   0.37370   0.76390   0.02800  Uani   1.00
N719   N     0.62740   0.43990   0.55920   0.04467  Uani   1.00
N720   N     0.37560   0.31240   0.21680   0.05467  Uani   1.00
O721   O     0.29330   0.47550   0.40090   0.03133  Uani   1.00
O722   O     0.34380   0.42770   0.35190   0.01820  Uani   1.00
O723   O     0.44100   0.31710   0.45880   0.02300  Uani   1.00
O724   O     0.49430   0.36319   0.52310   0.03700  Uani   1.00
O725   O     0.43580   0.31270   0.57040   0.04467  Uani   1.00
O726   O     0.30160   0.48274   0.26370   0.01833  Uani   1.00
O727   O     0.20920   0.52092   0.26240   0.01833  Uani   1.00
O728   O     0.53580   0.27990   0.65120   0.02400  Uani   1.00
O729   O     0.36580   0.37220   0.26370   0.03867  Uani   1.00
O730   O     0.58160   0.32790   0.92620   0.03833  Uani   1.00
O731   O     0.54710   0.27430   0.88030   0.02400  Uani   1.00
O732   O     0.28320   0.47010   0.63090   0.02833  Uani   1.00
O733   O     0.32510   0.41810   0.67530   0.02337  Uani   1.00
O734   O     0.61560   0.37630   0.51080   0.04067  Uani   1.00
O735   O     0.58940   0.32670   0.60130   0.02600  Uani   1.00
O736   O     0.68900   0.43840   0.81820   0.05900  Uani   1.00
O737   O     0.74700   0.39270   0.76750   0.05533  Uani   1.00
S738   S     0.44501   0.33927   0.51680   0.02393  Uani   1.00
S739   S     0.69647   0.41352   0.76320   0.02447  Uani   1.00
Cu740  Cu    0.25808   0.50421   0.19505   0.02360  Uani   1.00
Cu741  Cu    0.57347   0.32624   0.51319   0.02247  Uani   1.00
Cu742  Cu    0.32767   0.42602   0.26391   0.02317  Uani   1.00
Cu743  Cu    0.25600   0.50377   0.33346   0.02390  Uani   1.00
O744   O     0.68920   0.43460   0.70880   0.05167  Uani   1.00
C745   C     0.65860   0.57290   0.45890   0.02467  Uani   1.00
C746   C     0.68150   0.55930   0.51280   0.02233  Uani   1.00
H747   H     0.70720   0.53840   0.51150   0.02700  Uiso   1.00
C748   C     0.66680   0.57630   0.57010   0.01400  Uani   1.00
C749   C     0.62520   0.60650   0.57100   0.03267  Uani   1.00
H750   H     0.61030   0.61540   0.60800   0.03900  Uiso   1.00
C751   C     0.60750   0.62230   0.51550   0.01767  Uani   1.00
C752   C     0.62450   0.60780   0.46040   0.01900  Uani   1.00
H753   H     0.61390   0.62070   0.42410   0.02300  Uiso   1.00
C754   C     0.67930   0.55670   0.39980   0.02033  Uani   1.00
C755   C     0.68450   0.55970   0.63200   0.02367  Uani   1.00
C756   C     0.42460   0.69430   0.88170   0.01433  Uani   1.00
C757   C     0.65220   0.65660   0.23240   0.04200  Uani   1.00
H758   H     0.68800   0.65530   0.21960   0.05000  Uiso   1.00
C759   C     0.56950   0.68950   0.23760   0.16933  Uani   1.00
C760   C     0.64530   0.71800   0.18000   0.10533  Uani   1.00
C761   C     0.40210   0.59410   0.54620   0.05900  Uani   1.00
H762   H     0.43650   0.59640   0.56320   0.07100  Uiso   1.00
C763   C     0.39410   0.52620   0.59530   0.08500  Uani   1.00
H764   H     0.36700   0.50510   0.59950   0.12800  Uiso   1.00
H765   H     0.42520   0.51500   0.57500   0.12800  Uiso   1.00
H766   H     0.40420   0.53610   0.63540   0.12800  Uiso   1.00
C767   C     0.31510   0.55620   0.54310   0.08367  Uani   1.00
H768   H     0.30190   0.52990   0.55680   0.12500  Uiso   1.00
H769   H     0.29500   0.57790   0.56280   0.12500  Uiso   1.00
H770   H     0.31090   0.55830   0.49930   0.12500  Uiso   1.00
C771   C     0.43360   0.68880   0.65060   0.02067  Uani   1.00
C772   C     0.37610   0.64180   0.70960   0.01667  Uani   1.00
H773   H     0.36890   0.62860   0.67250   0.02000  Uiso   1.00
C774   C     0.40910   0.67470   0.70930   0.02000  Uani   1.00
C775   C     0.42680   0.69130   0.76340   0.01707  Uani   1.00
H776   H     0.45080   0.71340   0.76300   0.02000  Uiso   1.00
C777   C     0.40880   0.67480   0.82020   0.02300  Uani   1.00
C778   C     0.36700   0.64400   0.81970   0.01833  Uani   1.00
H779   H     0.35030   0.63610   0.85620   0.02200  Uiso   1.00
C780   C     0.35180   0.62630   0.76390   0.02800  Uani   1.00
N781   N     0.37260   0.56010   0.55920   0.04467  Uani   1.00
N782   N     0.62440   0.68760   0.21680   0.05467  Uani   1.00
O783   O     0.70670   0.52450   0.40090   0.03133  Uani   1.00
O784   O     0.65620   0.57230   0.35190   0.01820  Uani   1.00
O785   O     0.55900   0.68290   0.45880   0.02300  Uani   1.00
O786   O     0.50570   0.63681   0.52310   0.03700  Uani   1.00
O787   O     0.56420   0.68730   0.57040   0.04467  Uani   1.00
O788   O     0.69840   0.51726   0.26370   0.01833  Uani   1.00
O789   O     0.79080   0.47908   0.26240   0.01833  Uani   1.00
O790   O     0.46420   0.72010   0.65120   0.02400  Uani   1.00
O791   O     0.63420   0.62780   0.26370   0.03867  Uani   1.00
O792   O     0.41840   0.67210   0.92620   0.03833  Uani   1.00
O793   O     0.45290   0.72570   0.88030   0.02400  Uani   1.00
O794   O     0.71680   0.52990   0.63090   0.02833  Uani   1.00
O795   O     0.67490   0.58190   0.67530   0.02337  Uani   1.00
O796   O     0.38440   0.62370   0.51080   0.04067  Uani   1.00
O797   O     0.41060   0.67330   0.60130   0.02600  Uani   1.00
O798   O     0.31100   0.56160   0.81820   0.05900  Uani   1.00
O799   O     0.25300   0.60730   0.76750   0.05533  Uani   1.00
S800   S     0.55499   0.66073   0.51680   0.02393  Uani   1.00
S801   S     0.30353   0.58648   0.76320   0.02447  Uani   1.00
Cu802  Cu    0.74192   0.49579   0.19505   0.02360  Uani   1.00
Cu803  Cu    0.42653   0.67376   0.51319   0.02247  Uani   1.00
Cu804  Cu    0.67233   0.57398   0.26391   0.02317  Uani   1.00
Cu805  Cu    0.74400   0.49623   0.33346   0.02390  Uani   1.00
O806   O     0.31080   0.56540   0.70880   0.05167  Uani   1.00
C807   C     0.65860   0.07290   0.95890   0.02467  Uani   1.00
C808   C     0.68150   0.05930   0.01280   0.02233  Uani   1.00
H809   H     0.70720   0.03840   0.01150   0.02700  Uiso   1.00
C810   C     0.66680   0.07630   0.07010   0.01400  Uani   1.00
C811   C     0.62520   0.10650   0.07100   0.03267  Uani   1.00
H812   H     0.61030   0.11540   0.10800   0.03900  Uiso   1.00
C813   C     0.60750   0.12230   0.01550   0.01767  Uani   1.00
C814   C     0.62450   0.10780   0.96040   0.01900  Uani   1.00
H815   H     0.61390   0.12070   0.92410   0.02300  Uiso   1.00
C816   C     0.67930   0.05670   0.89980   0.02033  Uani   1.00
C817   C     0.68450   0.05970   0.13200   0.02367  Uani   1.00
C818   C     0.42460   0.19430   0.38170   0.01433  Uani   1.00
C819   C     0.65220   0.15660   0.73240   0.04200  Uani   1.00
H820   H     0.68800   0.15530   0.71960   0.05000  Uiso   1.00
C821   C     0.56950   0.18950   0.73760   0.16933  Uani   1.00
C822   C     0.64530   0.21800   0.68000   0.10533  Uani   1.00
C823   C     0.40210   0.09410   0.04620   0.05900  Uani   1.00
H824   H     0.43650   0.09640   0.06320   0.07100  Uiso   1.00
C825   C     0.39410   0.02620   0.09530   0.08500  Uani   1.00
H826   H     0.36700   0.00510   0.09950   0.12800  Uiso   1.00
H827   H     0.42520   0.01500   0.07500   0.12800  Uiso   1.00
H828   H     0.40420   0.03610   0.13540   0.12800  Uiso   1.00
C829   C     0.31510   0.05620   0.04310   0.08367  Uani   1.00
H830   H     0.30190   0.02990   0.05680   0.12500  Uiso   1.00
H831   H     0.29500   0.07790   0.06280   0.12500  Uiso   1.00
H832   H     0.31090   0.05830   0.99930   0.12500  Uiso   1.00
C833   C     0.43360   0.18880   0.15060   0.02067  Uani   1.00
C834   C     0.37610   0.14180   0.20960   0.01667  Uani   1.00
H835   H     0.36890   0.12860   0.17250   0.02000  Uiso   1.00
C836   C     0.40910   0.17470   0.20930   0.02000  Uani   1.00
C837   C     0.42680   0.19130   0.26340   0.01707  Uani   1.00
H838   H     0.45080   0.21340   0.26300   0.02000  Uiso   1.00
C839   C     0.40880   0.17480   0.32020   0.02300  Uani   1.00
C840   C     0.36700   0.14400   0.31970   0.01833  Uani   1.00
H841   H     0.35030   0.13610   0.35620   0.02200  Uiso   1.00
C842   C     0.35180   0.12630   0.26390   0.02800  Uani   1.00
N843   N     0.37260   0.06010   0.05920   0.04467  Uani   1.00
N844   N     0.62440   0.18760   0.71680   0.05467  Uani   1.00
O845   O     0.70670   0.02450   0.90090   0.03133  Uani   1.00
O846   O     0.65620   0.07230   0.85190   0.01820  Uani   1.00
O847   O     0.55900   0.18290   0.95880   0.02300  Uani   1.00
O848   O     0.50570   0.13681   0.02310   0.03700  Uani   1.00
O849   O     0.56420   0.18730   0.07040   0.04467  Uani   1.00
O850   O     0.69840   0.01726   0.76370   0.01833  Uani   1.00
O851   O     0.79080   0.97908   0.76240   0.01833  Uani   1.00
O852   O     0.46420   0.22010   0.15120   0.02400  Uani   1.00
O853   O     0.63420   0.12780   0.76370   0.03867  Uani   1.00
O854   O     0.41840   0.17210   0.42620   0.03833  Uani   1.00
O855   O     0.45290   0.22570   0.38030   0.02400  Uani   1.00
O856   O     0.71680   0.02990   0.13090   0.02833  Uani   1.00
O857   O     0.67490   0.08190   0.17530   0.02337  Uani   1.00
O858   O     0.38440   0.12370   0.01080   0.04067  Uani   1.00
O859   O     0.41060   0.17330   0.10130   0.02600  Uani   1.00
O860   O     0.31100   0.06160   0.31820   0.05900  Uani   1.00
O861   O     0.25300   0.10730   0.26750   0.05533  Uani   1.00
S862   S     0.55499   0.16073   0.01680   0.02393  Uani   1.00
S863   S     0.30353   0.08648   0.26320   0.02447  Uani   1.00
Cu864  Cu    0.74192   0.99579   0.69505   0.02360  Uani   1.00
Cu865  Cu    0.42653   0.17376   0.01319   0.02247  Uani   1.00
Cu866  Cu    0.67233   0.07398   0.76391   0.02317  Uani   1.00
Cu867  Cu    0.74400   0.99623   0.83346   0.02390  Uani   1.00
O868   O     0.31080   0.06540   0.20880   0.05167  Uani   1.00
C869   C     0.15860   0.57290   0.95890   0.02467  Uani   1.00
C870   C     0.18150   0.55930   0.01280   0.02233  Uani   1.00
H871   H     0.20720   0.53840   0.01150   0.02700  Uiso   1.00
C872   C     0.16680   0.57630   0.07010   0.01400  Uani   1.00
C873   C     0.12520   0.60650   0.07100   0.03267  Uani   1.00
H874   H     0.11030   0.61540   0.10800   0.03900  Uiso   1.00
C875   C     0.10750   0.62230   0.01550   0.01767  Uani   1.00
C876   C     0.12450   0.60780   0.96040   0.01900  Uani   1.00
H877   H     0.11390   0.62070   0.92410   0.02300  Uiso   1.00
C878   C     0.17930   0.55670   0.89980   0.02033  Uani   1.00
C879   C     0.18450   0.55970   0.13200   0.02367  Uani   1.00
C880   C     0.92460   0.69430   0.38170   0.01433  Uani   1.00
C881   C     0.15220   0.65660   0.73240   0.04200  Uani   1.00
H882   H     0.18800   0.65530   0.71960   0.05000  Uiso   1.00
C883   C     0.06950   0.68950   0.73760   0.16933  Uani   1.00
C884   C     0.14530   0.71800   0.68000   0.10533  Uani   1.00
C885   C     0.90210   0.59410   0.04620   0.05900  Uani   1.00
H886   H     0.93650   0.59640   0.06320   0.07100  Uiso   1.00
C887   C     0.89410   0.52620   0.09530   0.08500  Uani   1.00
H888   H     0.86700   0.50510   0.09950   0.12800  Uiso   1.00
H889   H     0.92520   0.51500   0.07500   0.12800  Uiso   1.00
H890   H     0.90420   0.53610   0.13540   0.12800  Uiso   1.00
C891   C     0.81510   0.55620   0.04310   0.08367  Uani   1.00
H892   H     0.80190   0.52990   0.05680   0.12500  Uiso   1.00
H893   H     0.79500   0.57790   0.06280   0.12500  Uiso   1.00
H894   H     0.81090   0.55830   0.99930   0.12500  Uiso   1.00
C895   C     0.93360   0.68880   0.15060   0.02067  Uani   1.00
C896   C     0.87610   0.64180   0.20960   0.01667  Uani   1.00
H897   H     0.86890   0.62860   0.17250   0.02000  Uiso   1.00
C898   C     0.90910   0.67470   0.20930   0.02000  Uani   1.00
C899   C     0.92680   0.69130   0.26340   0.01707  Uani   1.00
H900   H     0.95080   0.71340   0.26300   0.02000  Uiso   1.00
C901   C     0.90880   0.67480   0.32020   0.02300  Uani   1.00
C902   C     0.86700   0.64400   0.31970   0.01833  Uani   1.00
H903   H     0.85030   0.63610   0.35620   0.02200  Uiso   1.00
C904   C     0.85180   0.62630   0.26390   0.02800  Uani   1.00
N905   N     0.87260   0.56010   0.05920   0.04467  Uani   1.00
N906   N     0.12440   0.68760   0.71680   0.05467  Uani   1.00
O907   O     0.20670   0.52450   0.90090   0.03133  Uani   1.00
O908   O     0.15620   0.57230   0.85190   0.01820  Uani   1.00
O909   O     0.05900   0.68290   0.95880   0.02300  Uani   1.00
O910   O     0.00570   0.63681   0.02310   0.03700  Uani   1.00
O911   O     0.06420   0.68730   0.07040   0.04467  Uani   1.00
O912   O     0.19840   0.51726   0.76370   0.01833  Uani   1.00
O913   O     0.29080   0.47908   0.76240   0.01833  Uani   1.00
O914   O     0.96420   0.72010   0.15120   0.02400  Uani   1.00
O915   O     0.13420   0.62780   0.76370   0.03867  Uani   1.00
O916   O     0.91840   0.67210   0.42620   0.03833  Uani   1.00
O917   O     0.95290   0.72570   0.38030   0.02400  Uani   1.00
O918   O     0.21680   0.52990   0.13090   0.02833  Uani   1.00
O919   O     0.17490   0.58190   0.17530   0.02337  Uani   1.00
O920   O     0.88440   0.62370   0.01080   0.04067  Uani   1.00
O921   O     0.91060   0.67330   0.10130   0.02600  Uani   1.00
O922   O     0.81100   0.56160   0.31820   0.05900  Uani   1.00
O923   O     0.75300   0.60730   0.26750   0.05533  Uani   1.00
S924   S     0.05499   0.66073   0.01680   0.02393  Uani   1.00
S925   S     0.80353   0.58648   0.26320   0.02447  Uani   1.00
Cu926  Cu    0.24192   0.49579   0.69505   0.02360  Uani   1.00
Cu927  Cu    0.92653   0.67376   0.01319   0.02247  Uani   1.00
Cu928  Cu    0.17233   0.57398   0.76391   0.02317  Uani   1.00
Cu929  Cu    0.24400   0.49623   0.83346   0.02390  Uani   1.00
O930   O     0.81080   0.56540   0.20880   0.05167  Uani   1.00
C931   C     0.15860   0.07290   0.45890   0.02467  Uani   1.00
C932   C     0.18150   0.05930   0.51280   0.02233  Uani   1.00
H933   H     0.20720   0.03840   0.51150   0.02700  Uiso   1.00
C934   C     0.16680   0.07630   0.57010   0.01400  Uani   1.00
C935   C     0.12520   0.10650   0.57100   0.03267  Uani   1.00
H936   H     0.11030   0.11540   0.60800   0.03900  Uiso   1.00
C937   C     0.10750   0.12230   0.51550   0.01767  Uani   1.00
C938   C     0.12450   0.10780   0.46040   0.01900  Uani   1.00
H939   H     0.11390   0.12070   0.42410   0.02300  Uiso   1.00
C940   C     0.17930   0.05670   0.39980   0.02033  Uani   1.00
C941   C     0.18450   0.05970   0.63200   0.02367  Uani   1.00
C942   C     0.92460   0.19430   0.88170   0.01433  Uani   1.00
C943   C     0.15220   0.15660   0.23240   0.04200  Uani   1.00
H944   H     0.18800   0.15530   0.21960   0.05000  Uiso   1.00
C945   C     0.06950   0.18950   0.23760   0.16933  Uani   1.00
C946   C     0.14530   0.21800   0.18000   0.10533  Uani   1.00
C947   C     0.90210   0.09410   0.54620   0.05900  Uani   1.00
H948   H     0.93650   0.09640   0.56320   0.07100  Uiso   1.00
C949   C     0.89410   0.02620   0.59530   0.08500  Uani   1.00
H950   H     0.86700   0.00510   0.59950   0.12800  Uiso   1.00
H951   H     0.92520   0.01500   0.57500   0.12800  Uiso   1.00
H952   H     0.90420   0.03610   0.63540   0.12800  Uiso   1.00
C953   C     0.81510   0.05620   0.54310   0.08367  Uani   1.00
H954   H     0.80190   0.02990   0.55680   0.12500  Uiso   1.00
H955   H     0.79500   0.07790   0.56280   0.12500  Uiso   1.00
H956   H     0.81090   0.05830   0.49930   0.12500  Uiso   1.00
C957   C     0.93360   0.18880   0.65060   0.02067  Uani   1.00
C958   C     0.87610   0.14180   0.70960   0.01667  Uani   1.00
H959   H     0.86890   0.12860   0.67250   0.02000  Uiso   1.00
C960   C     0.90910   0.17470   0.70930   0.02000  Uani   1.00
C961   C     0.92680   0.19130   0.76340   0.01707  Uani   1.00
H962   H     0.95080   0.21340   0.76300   0.02000  Uiso   1.00
C963   C     0.90880   0.17480   0.82020   0.02300  Uani   1.00
C964   C     0.86700   0.14400   0.81970   0.01833  Uani   1.00
H965   H     0.85030   0.13610   0.85620   0.02200  Uiso   1.00
C966   C     0.85180   0.12630   0.76390   0.02800  Uani   1.00
N967   N     0.87260   0.06010   0.55920   0.04467  Uani   1.00
N968   N     0.12440   0.18760   0.21680   0.05467  Uani   1.00
O969   O     0.20670   0.02450   0.40090   0.03133  Uani   1.00
O970   O     0.15620   0.07230   0.35190   0.01820  Uani   1.00
O971   O     0.05900   0.18290   0.45880   0.02300  Uani   1.00
O972   O     0.00570   0.13681   0.52310   0.03700  Uani   1.00
O973   O     0.06420   0.18730   0.57040   0.04467  Uani   1.00
O974   O     0.19840   0.01726   0.26370   0.01833  Uani   1.00
O975   O     0.29080   0.97908   0.26240   0.01833  Uani   1.00
O976   O     0.96420   0.22010   0.65120   0.02400  Uani   1.00
O977   O     0.13420   0.12780   0.26370   0.03867  Uani   1.00
O978   O     0.91840   0.17210   0.92620   0.03833  Uani   1.00
O979   O     0.95290   0.22570   0.88030   0.02400  Uani   1.00
O980   O     0.21680   0.02990   0.63090   0.02833  Uani   1.00
O981   O     0.17490   0.08190   0.67530   0.02337  Uani   1.00
O982   O     0.88440   0.12370   0.51080   0.04067  Uani   1.00
O983   O     0.91060   0.17330   0.60130   0.02600  Uani   1.00
O984   O     0.81100   0.06160   0.81820   0.05900  Uani   1.00
O985   O     0.75300   0.10730   0.76750   0.05533  Uani   1.00
S986   S     0.05499   0.16073   0.51680   0.02393  Uani   1.00
S987   S     0.80353   0.08648   0.76320   0.02447  Uani   1.00
Cu988  Cu    0.24192   0.99579   0.19505   0.02360  Uani   1.00
Cu989  Cu    0.92653   0.17376   0.51319   0.02247  Uani   1.00
Cu990  Cu    0.17233   0.07398   0.26391   0.02317  Uani   1.00
Cu991  Cu    0.24400   0.99623   0.33346   0.02390  Uani   1.00
O992   O     0.81080   0.06540   0.70880   0.05167  Uani   1.00
loop_
_atom_site_aniso_label
_atom_site_aniso_U_11
_atom_site_aniso_U_22
_atom_site_aniso_U_33
_atom_site_aniso_U_12
_atom_site_aniso_U_13
_atom_site_aniso_U_23
C1        0.02500   0.02500   0.02400   0.00010   0.00020   0.00020
C2        0.02200   0.02300   0.02200  -0.00050   0.00000   0.00020
C4        0.01400   0.01400   0.01400  -0.00020  -0.00010  -0.00020
C5        0.03300   0.03300   0.03200  -0.00060  -0.00020  -0.00060
C7        0.01800   0.01700   0.01800  -0.00110  -0.00010  -0.00010
C8        0.01900   0.01900   0.01900  -0.00100   0.00020   0.00090
C10       0.02000   0.02100   0.02000  -0.00060  -0.00010   0.00000
C11       0.02400   0.02400   0.02300  -0.00050   0.00030  -0.00030
C12       0.01400   0.01500   0.01400   0.00010   0.00000   0.00070
C13       0.08400   0.03000   0.01200  -0.03500   0.01700  -0.00500
C15       0.05000   0.09800   0.36000  -0.00600  -0.01200   0.12700
C16       0.10900   0.12700   0.08000   0.01000  -0.00600   0.05800
C17       0.04000   0.06700   0.07000   0.02800  -0.01900  -0.03200
C19       0.06900   0.06400   0.12200   0.04600   0.00100   0.04800
C23       0.05900   0.06100   0.13100   0.01200   0.03900   0.01400
C27       0.02100   0.02100   0.02000   0.00010  -0.00020  -0.00030
C28       0.01700   0.01700   0.01600  -0.00060   0.00010  -0.00030
C30       0.02000   0.02000   0.02000   0.00040   0.00010  -0.00030
C31       0.01750   0.01720   0.01650   0.00050   0.00020   0.00020
C33       0.03200   0.03200   0.00500   0.01400   0.00200   0.00100
C34       0.01800   0.01900   0.01800  -0.00030  -0.00010  -0.00010
C36       0.02500   0.03900   0.02000   0.00300  -0.00600   0.00500
N37       0.05000   0.01500   0.06900   0.01400  -0.00500   0.01100
N38       0.05500   0.05400   0.05500  -0.00030   0.00010   0.00050
O39       0.03300   0.03100   0.03000  -0.00190  -0.00030   0.00000
O40       0.01830   0.01940   0.01690  -0.00120  -0.00040   0.00090
O41       0.02300   0.02300   0.02300  -0.00050  -0.00060   0.00060
O42       0.03000   0.02600   0.05500  -0.00500  -0.00800   0.01000
O43       0.07500   0.03300   0.02600  -0.02300   0.01900  -0.01500
O44       0.02200   0.02300   0.01000  -0.00800   0.00600  -0.00500
O45       0.02300   0.02000   0.01200  -0.00800   0.00300  -0.00300
O46       0.02400   0.02500   0.02300   0.00270  -0.00090  -0.00030
O47       0.05700   0.03400   0.02500  -0.02200   0.00200   0.00600
O48       0.04000   0.03800   0.03700   0.00200   0.00000   0.00050
O49       0.02500   0.02400   0.02300   0.00180  -0.00020  -0.00120
O50       0.02900   0.02900   0.02700  -0.00300   0.00090  -0.00070
O51       0.02370   0.02380   0.02260  -0.00080  -0.00040  -0.00010
O52       0.06800   0.03800   0.01600   0.02900   0.00700   0.00100
O53       0.02700   0.02700   0.02400   0.00210   0.00020  -0.00010
O54       0.09600   0.03800   0.04300   0.04500   0.02800   0.02400
O55       0.03200   0.04200   0.09200   0.00400  -0.00900  -0.00900
S56       0.03140   0.02080   0.01960  -0.00940   0.00100   0.00500
S57       0.02690   0.02630   0.02020   0.00980   0.00500  -0.00700
Cu58      0.03060   0.02940   0.01080  -0.01530  -0.00070   0.00070
Cu59      0.03220   0.02670   0.00850   0.01080  -0.00380  -0.00160
Cu60      0.03540   0.02550   0.00860  -0.01080  -0.00270  -0.00010
Cu61      0.03510   0.03170   0.00490  -0.01590   0.00060  -0.00110
O62       0.05300   0.06300   0.03900   0.03000  -0.01000  -0.01700
C63       0.02500   0.02500   0.02400   0.00010   0.00020   0.00020
C64       0.02200   0.02300   0.02200  -0.00050   0.00000   0.00020
C66       0.01400   0.01400   0.01400  -0.00020  -0.00010  -0.00020
C67       0.03300   0.03300   0.03200  -0.00060  -0.00020  -0.00060
C69       0.01800   0.01700   0.01800  -0.00110  -0.00010  -0.00010
C70       0.01900   0.01900   0.01900  -0.00100   0.00020   0.00090
C72       0.02000   0.02100   0.02000  -0.00060  -0.00010   0.00000
C73       0.02400   0.02400   0.02300  -0.00050   0.00030  -0.00030
C74       0.01400   0.01500   0.01400   0.00010   0.00000   0.00070
C75       0.08400   0.03000   0.01200  -0.03500   0.01700  -0.00500
C77       0.05000   0.09800   0.36000  -0.00600  -0.01200   0.12700
C78       0.10900   0.12700   0.08000   0.01000  -0.00600   0.05800
C79       0.04000   0.06700   0.07000   0.02800  -0.01900  -0.03200
C81       0.06900   0.06400   0.12200   0.04600   0.00100   0.04800
C85       0.05900   0.06100   0.13100   0.01200   0.03900   0.01400
C89       0.02100   0.02100   0.02000   0.00010  -0.00020  -0.00030
C90       0.01700   0.01700   0.01600  -0.00060   0.00010  -0.00030
C92       0.02000   0.02000   0.02000   0.00040   0.00010  -0.00030
C93       0.01750   0.01720   0.01650   0.00050   0.00020   0.00020
C95       0.03200   0.03200   0.00500   0.01400   0.00200   0.00100
C96       0.01800   0.01900   0.01800  -0.00030  -0.00010  -0.00010
C98       0.02500   0.03900   0.02000   0.00300  -0.00600   0.00500
N99       0.05000   0.01500   0.06900   0.01400  -0.00500   0.01100
N100      0.05500   0.05400   0.05500  -0.00030   0.00010   0.00050
O101      0.03300   0.03100   0.03000  -0.00190  -0.00030   0.00000
O102      0.01830   0.01940   0.01690  -0.00120  -0.00040   0.00090
O103      0.02300   0.02300   0.02300  -0.00050  -0.00060   0.00060
O104      0.03000   0.02600   0.05500  -0.00500  -0.00800   0.01000
O105      0.07500   0.03300   0.02600  -0.02300   0.01900  -0.01500
O106      0.02200   0.02300   0.01000  -0.00800   0.00600  -0.00500
O107      0.02300   0.02000   0.01200  -0.00800   0.00300  -0.00300
O108      0.02400   0.02500   0.02300   0.00270  -0.00090  -0.00030
O109      0.05700   0.03400   0.02500  -0.02200   0.00200   0.00600
O110      0.04000   0.03800   0.03700   0.00200   0.00000   0.00050
O111      0.02500   0.02400   0.02300   0.00180  -0.00020  -0.00120
O112      0.02900   0.02900   0.02700  -0.00300   0.00090  -0.00070
O113      0.02370   0.02380   0.02260  -0.00080  -0.00040  -0.00010
O114      0.06800   0.03800   0.01600   0.02900   0.00700   0.00100
O115      0.02700   0.02700   0.02400   0.00210   0.00020  -0.00010
O116      0.09600   0.03800   0.04300   0.04500   0.02800   0.02400
O117      0.03200   0.04200   0.09200   0.00400  -0.00900  -0.00900
S118      0.03140   0.02080   0.01960  -0.00940   0.00100   0.00500
S119      0.02690   0.02630   0.02020   0.00980   0.00500  -0.00700
Cu120     0.03060   0.02940   0.01080  -0.01530  -0.00070   0.00070
Cu121     0.03220   0.02670   0.00850   0.01080  -0.00380  -0.00160
Cu122     0.03540   0.02550   0.00860  -0.01080  -0.00270  -0.00010
Cu123     0.03510   0.03170   0.00490  -0.01590   0.00060  -0.00110
O124      0.05300   0.06300   0.03900   0.03000  -0.01000  -0.01700
C125      0.02500   0.02500   0.02400   0.00010   0.00020   0.00020
C126      0.02200   0.02300   0.02200  -0.00050   0.00000   0.00020
C128      0.01400   0.01400   0.01400  -0.00020  -0.00010  -0.00020
C129      0.03300   0.03300   0.03200  -0.00060  -0.00020  -0.00060
C131      0.01800   0.01700   0.01800  -0.00110  -0.00010  -0.00010
C132      0.01900   0.01900   0.01900  -0.00100   0.00020   0.00090
C134      0.02000   0.02100   0.02000  -0.00060  -0.00010   0.00000
C135      0.02400   0.02400   0.02300  -0.00050   0.00030  -0.00030
C136      0.01400   0.01500   0.01400   0.00010   0.00000   0.00070
C137      0.08400   0.03000   0.01200  -0.03500   0.01700  -0.00500
C139      0.05000   0.09800   0.36000  -0.00600  -0.01200   0.12700
C140      0.10900   0.12700   0.08000   0.01000  -0.00600   0.05800
C141      0.04000   0.06700   0.07000   0.02800  -0.01900  -0.03200
C143      0.06900   0.06400   0.12200   0.04600   0.00100   0.04800
C147      0.05900   0.06100   0.13100   0.01200   0.03900   0.01400
C151      0.02100   0.02100   0.02000   0.00010  -0.00020  -0.00030
C152      0.01700   0.01700   0.01600  -0.00060   0.00010  -0.00030
C154      0.02000   0.02000   0.02000   0.00040   0.00010  -0.00030
C155      0.01750   0.01720   0.01650   0.00050   0.00020   0.00020
C157      0.03200   0.03200   0.00500   0.01400   0.00200   0.00100
C158      0.01800   0.01900   0.01800  -0.00030  -0.00010  -0.00010
C160      0.02500   0.03900   0.02000   0.00300  -0.00600   0.00500
N161      0.05000   0.01500   0.06900   0.01400  -0.00500   0.01100
N162      0.05500   0.05400   0.05500  -0.00030   0.00010   0.00050
O163      0.03300   0.03100   0.03000  -0.00190  -0.00030   0.00000
O164      0.01830   0.01940   0.01690  -0.00120  -0.00040   0.00090
O165      0.02300   0.02300   0.02300  -0.00050  -0.00060   0.00060
O166      0.03000   0.02600   0.05500  -0.00500  -0.00800   0.01000
O167      0.07500   0.03300   0.02600  -0.02300   0.01900  -0.01500
O168      0.02200   0.02300   0.01000  -0.00800   0.00600  -0.00500
O169      0.02300   0.02000   0.01200  -0.00800   0.00300  -0.00300
O170      0.02400   0.02500   0.02300   0.00270  -0.00090  -0.00030
O171      0.05700   0.03400   0.02500  -0.02200   0.00200   0.00600
O172      0.04000   0.03800   0.03700   0.00200   0.00000   0.00050
O173      0.02500   0.02400   0.02300   0.00180  -0.00020  -0.00120
O174      0.02900   0.02900   0.02700  -0.00300   0.00090  -0.00070
O175      0.02370   0.02380   0.02260  -0.00080  -0.00040  -0.00010
O176      0.06800   0.03800   0.01600   0.02900   0.00700   0.00100
O177      0.02700   0.02700   0.02400   0.00210   0.00020  -0.00010
O178      0.09600   0.03800   0.04300   0.04500   0.02800   0.02400
O179      0.03200   0.04200   0.09200   0.00400  -0.00900  -0.00900
S180      0.03140   0.02080   0.01960  -0.00940   0.00100   0.00500
S181      0.02690   0.02630   0.02020   0.00980   0.00500  -0.00700
Cu182     0.03060   0.02940   0.01080  -0.01530  -0.00070   0.00070
Cu183     0.03220   0.02670   0.00850   0.01080  -0.00380  -0.00160
Cu184     0.03540   0.02550   0.00860  -0.01080  -0.00270  -0.00010
Cu185     0.03510   0.03170   0.00490  -0.01590   0.00060  -0.00110
O186      0.05300   0.06300   0.03900   0.03000  -0.01000  -0.01700
C187      0.02500   0.02500   0.02400   0.00010   0.00020   0.00020
C188      0.02200   0.02300   0.02200  -0.00050   0.00000   0.00020
C190      0.01400   0.01400   0.01400  -0.00020  -0.00010  -0.00020
C191      0.03300   0.03300   0.03200  -0.00060  -0.00020  -0.00060
C193      0.01800   0.01700   0.01800  -0.00110  -0.00010  -0.00010
C194      0.01900   0.01900   0.01900  -0.00100   0.00020   0.00090
C196      0.02000   0.02100   0.02000  -0.00060  -0.00010   0.00000
C197      0.02400   0.02400   0.02300  -0.00050   0.00030  -0.00030
C198      0.01400   0.01500   0.01400   0.00010   0.00000   0.00070
C199      0.08400   0.03000   0.01200  -0.03500   0.01700  -0.00500
C201      0.05000   0.09800   0.36000  -0.00600  -0.01200   0.12700
C202      0.10900   0.12700   0.08000   0.01000  -0.00600   0.05800
C203      0.04000   0.06700   0.07000   0.02800  -0.01900  -0.03200
C205      0.06900   0.06400   0.12200   0.04600   0.00100   0.04800
C209      0.05900   0.06100   0.13100   0.01200   0.03900   0.01400
C213      0.02100   0.02100   0.02000   0.00010  -0.00020  -0.00030
C214      0.01700   0.01700   0.01600  -0.00060   0.00010  -0.00030
C216      0.02000   0.02000   0.02000   0.00040   0.00010  -0.00030
C217      0.01750   0.01720   0.01650   0.00050   0.00020   0.00020
C219      0.03200   0.03200   0.00500   0.01400   0.00200   0.00100
C220      0.01800   0.01900   0.01800  -0.00030  -0.00010  -0.00010
C222      0.02500   0.03900   0.02000   0.00300  -0.00600   0.00500
N223      0.05000   0.01500   0.06900   0.01400  -0.00500   0.01100
N224      0.05500   0.05400   0.05500  -0.00030   0.00010   0.00050
O225      0.03300   0.03100   0.03000  -0.00190  -0.00030   0.00000
O226      0.01830   0.01940   0.01690  -0.00120  -0.00040   0.00090
O227      0.02300   0.02300   0.02300  -0.00050  -0.00060   0.00060
O228      0.03000   0.02600   0.05500  -0.00500  -0.00800   0.01000
O229      0.07500   0.03300   0.02600  -0.02300   0.01900  -0.01500
O230      0.02200   0.02300   0.01000  -0.00800   0.00600  -0.00500
O231      0.02300   0.02000   0.01200  -0.00800   0.00300  -0.00300
O232      0.02400   0.02500   0.02300   0.00270  -0.00090  -0.00030
O233      0.05700   0.03400   0.02500  -0.02200   0.00200   0.00600
O234      0.04000   0.03800   0.03700   0.00200   0.00000   0.00050
O235      0.02500   0.02400   0.02300   0.00180  -0.00020  -0.00120
O236      0.02900   0.02900   0.02700  -0.00300   0.00090  -0.00070
O237      0.02370   0.02380   0.02260  -0.00080  -0.00040  -0.00010
O238      0.06800   0.03800   0.01600   0.02900   0.00700   0.00100
O239      0.02700   0.02700   0.02400   0.00210   0.00020  -0.00010
O240      0.09600   0.03800   0.04300   0.04500   0.02800   0.02400
O241      0.03200   0.04200   0.09200   0.00400  -0.00900  -0.00900
S242      0.03140   0.02080   0.01960  -0.00940   0.00100   0.00500
S243      0.02690   0.02630   0.02020   0.00980   0.00500  -0.00700
Cu244     0.03060   0.02940   0.01080  -0.01530  -0.00070   0.00070
Cu245     0.03220   0.02670   0.00850   0.01080  -0.00380  -0.00160
Cu246     0.03540   0.02550   0.00860  -0.01080  -0.00270  -0.00010
Cu247     0.03510   0.03170   0.00490  -0.01590   0.00060  -0.00110
O248      0.05300   0.06300   0.03900   0.03000  -0.01000  -0.01700
C249      0.02500   0.02500   0.02400   0.00010  -0.00020  -0.00020
C250      0.02200   0.02300   0.02200  -0.00050   0.00000  -0.00020
C252      0.01400   0.01400   0.01400  -0.00020   0.00010   0.00020
C253      0.03300   0.03300   0.03200  -0.00060   0.00020   0.00060
C255      0.01800   0.01700   0.01800  -0.00110   0.00010   0.00010
C256      0.01900   0.01900   0.01900  -0.00100  -0.00020  -0.00090
C258      0.02000   0.02100   0.02000  -0.00060   0.00010   0.00000
C259      0.02400   0.02400   0.02300  -0.00050  -0.00030   0.00030
C260      0.01400   0.01500   0.01400   0.00010   0.00000  -0.00070
C261      0.08400   0.03000   0.01200  -0.03500  -0.01700   0.00500
C263      0.05000   0.09800   0.36000  -0.00600   0.01200  -0.12700
C264      0.10900   0.12700   0.08000   0.01000   0.00600  -0.05800
C265      0.04000   0.06700   0.07000   0.02800   0.01900   0.03200
C267      0.06900   0.06400   0.12200   0.04600  -0.00100  -0.04800
C271      0.05900   0.06100   0.13100   0.01200  -0.03900  -0.01400
C275      0.02100   0.02100   0.02000   0.00010   0.00020   0.00030
C276      0.01700   0.01700   0.01600  -0.00060  -0.00010   0.00030
C278      0.02000   0.02000   0.02000   0.00040  -0.00010   0.00030
C279      0.01750   0.01720   0.01650   0.00050  -0.00020  -0.00020
C281      0.03200   0.03200   0.00500   0.01400  -0.00200  -0.00100
C282      0.01800   0.01900   0.01800  -0.00030   0.00010   0.00010
C284      0.02500   0.03900   0.02000   0.00300   0.00600  -0.00500
N285      0.05000   0.01500   0.06900   0.01400   0.00500  -0.01100
N286      0.05500   0.05400   0.05500  -0.00030  -0.00010  -0.00050
O287      0.03300   0.03100   0.03000  -0.00190   0.00030   0.00000
O288      0.01830   0.01940   0.01690  -0.00120   0.00040  -0.00090
O289      0.02300   0.02300   0.02300  -0.00050   0.00060  -0.00060
O290      0.03000   0.02600   0.05500  -0.00500   0.00800  -0.01000
O291      0.07500   0.03300   0.02600  -0.02300  -0.01900   0.01500
O292      0.02200   0.02300   0.01000  -0.00800  -0.00600   0.00500
O293      0.02300   0.02000   0.01200  -0.00800  -0.00300   0.00300
O294      0.02400   0.02500   0.02300   0.00270   0.00090   0.00030
O295      0.05700   0.03400   0.02500  -0.02200  -0.00200  -0.00600
O296      0.04000   0.03800   0.03700   0.00200   0.00000  -0.00050
O297      0.02500   0.02400   0.02300   0.00180   0.00020   0.00120
O298      0.02900   0.02900   0.02700  -0.00300  -0.00090   0.00070
O299      0.02370   0.02380   0.02260  -0.00080   0.00040   0.00010
O300      0.06800   0.03800   0.01600   0.02900  -0.00700  -0.00100
O301      0.02700   0.02700   0.02400   0.00210  -0.00020   0.00010
O302      0.09600   0.03800   0.04300   0.04500  -0.02800  -0.02400
O303      0.03200   0.04200   0.09200   0.00400   0.00900   0.00900
S304      0.03140   0.02080   0.01960  -0.00940  -0.00100  -0.00500
S305      0.02690   0.02630   0.02020   0.00980  -0.00500   0.00700
Cu306     0.03060   0.02940   0.01080  -0.01530   0.00070  -0.00070
Cu307     0.03220   0.02670   0.00850   0.01080   0.00380   0.00160
Cu308     0.03540   0.02550   0.00860  -0.01080   0.00270   0.00010
Cu309     0.03510   0.03170   0.00490  -0.01590  -0.00060   0.00110
O310      0.05300   0.06300   0.03900   0.03000   0.01000   0.01700
C311      0.02500   0.02500   0.02400   0.00010  -0.00020  -0.00020
C312      0.02200   0.02300   0.02200  -0.00050   0.00000  -0.00020
C314      0.01400   0.01400   0.01400  -0.00020   0.00010   0.00020
C315      0.03300   0.03300   0.03200  -0.00060   0.00020   0.00060
C317      0.01800   0.01700   0.01800  -0.00110   0.00010   0.00010
C318      0.01900   0.01900   0.01900  -0.00100  -0.00020  -0.00090
C320      0.02000   0.02100   0.02000  -0.00060   0.00010   0.00000
C321      0.02400   0.02400   0.02300  -0.00050  -0.00030   0.00030
C322      0.01400   0.01500   0.01400   0.00010   0.00000  -0.00070
C323      0.08400   0.03000   0.01200  -0.03500  -0.01700   0.00500
C325      0.05000   0.09800   0.36000  -0.00600   0.01200  -0.12700
C326      0.10900   0.12700   0.08000   0.01000   0.00600  -0.05800
C327      0.04000   0.06700   0.07000   0.02800   0.01900   0.03200
C329      0.06900   0.06400   0.12200   0.04600  -0.00100  -0.04800
C333      0.05900   0.06100   0.13100   0.01200  -0.03900  -0.01400
C337      0.02100   0.02100   0.02000   0.00010   0.00020   0.00030
C338      0.01700   0.01700   0.01600  -0.00060  -0.00010   0.00030
C340      0.02000   0.02000   0.02000   0.00040  -0.00010   0.00030
C341      0.01750   0.01720   0.01650   0.00050  -0.00020  -0.00020
C343      0.03200   0.03200   0.00500   0.01400  -0.00200  -0.00100
C344      0.01800   0.01900   0.01800  -0.00030   0.00010   0.00010
C346      0.02500   0.03900   0.02000   0.00300   0.00600  -0.00500
N347      0.05000   0.01500   0.06900   0.01400   0.00500  -0.01100
N348      0.05500   0.05400   0.05500  -0.00030  -0.00010  -0.00050
O349      0.03300   0.03100   0.03000  -0.00190   0.00030   0.00000
O350      0.01830   0.01940   0.01690  -0.00120   0.00040  -0.00090
O351      0.02300   0.02300   0.02300  -0.00050   0.00060  -0.00060
O352      0.03000   0.02600   0.05500  -0.00500   0.00800  -0.01000
O353      0.07500   0.03300   0.02600  -0.02300  -0.01900   0.01500
O354      0.02200   0.02300   0.01000  -0.00800  -0.00600   0.00500
O355      0.02300   0.02000   0.01200  -0.00800  -0.00300   0.00300
O356      0.02400   0.02500   0.02300   0.00270   0.00090   0.00030
O357      0.05700   0.03400   0.02500  -0.02200  -0.00200  -0.00600
O358      0.04000   0.03800   0.03700   0.00200   0.00000  -0.00050
O359      0.02500   0.02400   0.02300   0.00180   0.00020   0.00120
O360      0.02900   0.02900   0.02700  -0.00300  -0.00090   0.00070
O361      0.02370   0.02380   0.02260  -0.00080   0.00040   0.00010
O362      0.06800   0.03800   0.01600   0.02900  -0.00700  -0.00100
O363      0.02700   0.02700   0.02400   0.00210  -0.00020   0.00010
O364      0.09600   0.03800   0.04300   0.04500  -0.02800  -0.02400
O365      0.03200   0.04200   0.09200   0.00400   0.00900   0.00900
S366      0.03140   0.02080   0.01960  -0.00940  -0.00100  -0.00500
S367      0.02690   0.02630   0.02020   0.00980  -0.00500   0.00700
Cu368     0.03060   0.02940   0.01080  -0.01530   0.00070  -0.00070
Cu369     0.03220   0.02670   0.00850   0.01080   0.00380   0.00160
Cu370     0.03540   0.02550   0.00860  -0.01080   0.00270   0.00010
Cu371     0.03510   0.03170   0.00490  -0.01590  -0.00060   0.00110
O372      0.05300   0.06300   0.03900   0.03000   0.01000   0.01700
C373      0.02500   0.02500   0.02400   0.00010  -0.00020  -0.00020
C374      0.02200   0.02300   0.02200  -0.00050   0.00000  -0.00020
C376      0.01400   0.01400   0.01400  -0.00020   0.00010   0.00020
C377      0.03300   0.03300   0.03200  -0.00060   0.00020   0.00060
C379      0.01800   0.01700   0.01800  -0.00110   0.00010   0.00010
C380      0.01900   0.01900   0.01900  -0.00100  -0.00020  -0.00090
C382      0.02000   0.02100   0.02000  -0.00060   0.00010   0.00000
C383      0.02400   0.02400   0.02300  -0.00050  -0.00030   0.00030
C384      0.01400   0.01500   0.01400   0.00010   0.00000  -0.00070
C385      0.08400   0.03000   0.01200  -0.03500  -0.01700   0.00500
C387      0.05000   0.09800   0.36000  -0.00600   0.01200  -0.12700
C388      0.10900   0.12700   0.08000   0.01000   0.00600  -0.05800
C389      0.04000   0.06700   0.07000   0.02800   0.01900   0.03200
C391      0.06900   0.06400   0.12200   0.04600  -0.00100  -0.04800
C395      0.05900   0.06100   0.13100   0.01200  -0.03900  -0.01400
C399      0.02100   0.02100   0.02000   0.00010   0.00020   0.00030
C400      0.01700   0.01700   0.01600  -0.00060  -0.00010   0.00030
C402      0.02000   0.02000   0.02000   0.00040  -0.00010   0.00030
C403      0.01750   0.01720   0.01650   0.00050  -0.00020  -0.00020
C405      0.03200   0.03200   0.00500   0.01400  -0.00200  -0.00100
C406      0.01800   0.01900   0.01800  -0.00030   0.00010   0.00010
C408      0.02500   0.03900   0.02000   0.00300   0.00600  -0.00500
N409      0.05000   0.01500   0.06900   0.01400   0.00500  -0.01100
N410      0.05500   0.05400   0.05500  -0.00030  -0.00010  -0.00050
O411      0.03300   0.03100   0.03000  -0.00190   0.00030   0.00000
O412      0.01830   0.01940   0.01690  -0.00120   0.00040  -0.00090
O413      0.02300   0.02300   0.02300  -0.00050   0.00060  -0.00060
O414      0.03000   0.02600   0.05500  -0.00500   0.00800  -0.01000
O415      0.07500   0.03300   0.02600  -0.02300  -0.01900   0.01500
O416      0.02200   0.02300   0.01000  -0.00800  -0.00600   0.00500
O417      0.02300   0.02000   0.01200  -0.00800  -0.00300   0.00300
O418      0.02400   0.02500   0.02300   0.00270   0.00090   0.00030
O419      0.05700   0.03400   0.02500  -0.02200  -0.00200  -0.00600
O420      0.04000   0.03800   0.03700   0.00200   0.00000  -0.00050
O421      0.02500   0.02400   0.02300   0.00180   0.00020   0.00120
O422      0.02900   0.02900   0.02700  -0.00300  -0.00090   0.00070
O423      0.02370   0.02380   0.02260  -0.00080   0.00040   0.00010
O424      0.06800   0.03800   0.01600   0.02900  -0.00700  -0.00100
O425      0.02700   0.02700   0.02400   0.00210  -0.00020   0.00010
O426      0.09600   0.03800   0.04300   0.04500  -0.02800  -0.02400
O427      0.03200   0.04200   0.09200   0.00400   0.00900   0.00900
S428      0.03140   0.02080   0.01960  -0.00940  -0.00100  -0.00500
S429      0.02690   0.02630   0.02020   0.00980  -0.00500   0.00700
Cu430     0.03060   0.02940   0.01080  -0.01530   0.00070  -0.00070
Cu431     0.03220   0.02670   0.00850   0.01080   0.00380   0.00160
Cu432     0.03540   0.02550   0.00860  -0.01080   0.00270   0.00010
Cu433     0.03510   0.03170   0.00490  -0.01590  -0.00060   0.00110
O434      0.05300   0.06300   0.03900   0.03000   0.01000   0.01700
C435      0.02500   0.02500   0.02400   0.00010  -0.00020  -0.00020
C436      0.02200   0.02300   0.02200  -0.00050   0.00000  -0.00020
C438      0.01400   0.01400   0.01400  -0.00020   0.00010   0.00020
C439      0.03300   0.03300   0.03200  -0.00060   0.00020   0.00060
C441      0.01800   0.01700   0.01800  -0.00110   0.00010   0.00010
C442      0.01900   0.01900   0.01900  -0.00100  -0.00020  -0.00090
C444      0.02000   0.02100   0.02000  -0.00060   0.00010   0.00000
C445      0.02400   0.02400   0.02300  -0.00050  -0.00030   0.00030
C446      0.01400   0.01500   0.01400   0.00010   0.00000  -0.00070
C447      0.08400   0.03000   0.01200  -0.03500  -0.01700   0.00500
C449      0.05000   0.09800   0.36000  -0.00600   0.01200  -0.12700
C450      0.10900   0.12700   0.08000   0.01000   0.00600  -0.05800
C451      0.04000   0.06700   0.07000   0.02800   0.01900   0.03200
C453      0.06900   0.06400   0.12200   0.04600  -0.00100  -0.04800
C457      0.05900   0.06100   0.13100   0.01200  -0.03900  -0.01400
C461      0.02100   0.02100   0.02000   0.00010   0.00020   0.00030
C462      0.01700   0.01700   0.01600  -0.00060  -0.00010   0.00030
C464      0.02000   0.02000   0.02000   0.00040  -0.00010   0.00030
C465      0.01750   0.01720   0.01650   0.00050  -0.00020  -0.00020
C467      0.03200   0.03200   0.00500   0.01400  -0.00200  -0.00100
C468      0.01800   0.01900   0.01800  -0.00030   0.00010   0.00010
C470      0.02500   0.03900   0.02000   0.00300   0.00600  -0.00500
N471      0.05000   0.01500   0.06900   0.01400   0.00500  -0.01100
N472      0.05500   0.05400   0.05500  -0.00030  -0.00010  -0.00050
O473      0.03300   0.03100   0.03000  -0.00190   0.00030   0.00000
O474      0.01830   0.01940   0.01690  -0.00120   0.00040  -0.00090
O475      0.02300   0.02300   0.02300  -0.00050   0.00060  -0.00060
O476      0.03000   0.02600   0.05500  -0.00500   0.00800  -0.01000
O477      0.07500   0.03300   0.02600  -0.02300  -0.01900   0.01500
O478      0.02200   0.02300   0.01000  -0.00800  -0.00600   0.00500
O479      0.02300   0.02000   0.01200  -0.00800  -0.00300   0.00300
O480      0.02400   0.02500   0.02300   0.00270   0.00090   0.00030
O481      0.05700   0.03400   0.02500  -0.02200  -0.00200  -0.00600
O482      0.04000   0.03800   0.03700   0.00200   0.00000  -0.00050
O483      0.02500   0.02400   0.02300   0.00180   0.00020   0.00120
O484      0.02900   0.02900   0.02700  -0.00300  -0.00090   0.00070
O485      0.02370   0.02380   0.02260  -0.00080   0.00040   0.00010
O486      0.06800   0.03800   0.01600   0.02900  -0.00700  -0.00100
O487      0.02700   0.02700   0.02400   0.00210  -0.00020   0.00010
O488      0.09600   0.03800   0.04300   0.04500  -0.02800  -0.02400
O489      0.03200   0.04200   0.09200   0.00400   0.00900   0.00900
S490      0.03140   0.02080   0.01960  -0.00940  -0.00100  -0.00500
S491      0.02690   0.02630   0.02020   0.00980  -0.00500   0.00700
Cu492     0.03060   0.02940   0.01080  -0.01530   0.00070  -0.00070
Cu493     0.03220   0.02670   0.00850   0.01080   0.00380   0.00160
Cu494     0.03540   0.02550   0.00860  -0.01080   0.00270   0.00010
Cu495     0.03510   0.03170   0.00490  -0.01590  -0.00060   0.00110
O496      0.05300   0.06300   0.03900   0.03000   0.01000   0.01700
C497      0.02500   0.02500   0.02400  -0.00010   0.00020  -0.00020
C498      0.02200   0.02300   0.02200   0.00050   0.00000  -0.00020
C500      0.01400   0.01400   0.01400   0.00020  -0.00010   0.00020
C501      0.03300   0.03300   0.03200   0.00060  -0.00020   0.00060
C503      0.01800   0.01700   0.01800   0.00110  -0.00010   0.00010
C504      0.01900   0.01900   0.01900   0.00100   0.00020  -0.00090
C506      0.02000   0.02100   0.02000   0.00060  -0.00010   0.00000
C507      0.02400   0.02400   0.02300   0.00050   0.00030   0.00030
C508      0.01400   0.01500   0.01400  -0.00010   0.00000  -0.00070
C509      0.08400   0.03000   0.01200   0.03500   0.01700   0.00500
C511      0.05000   0.09800   0.36000   0.00600  -0.01200  -0.12700
C512      0.10900   0.12700   0.08000  -0.01000  -0.00600  -0.05800
C513      0.04000   0.06700   0.07000  -0.02800  -0.01900   0.03200
C515      0.06900   0.06400   0.12200  -0.04600   0.00100  -0.04800
C519      0.05900   0.06100   0.13100  -0.01200   0.03900  -0.01400
C523      0.02100   0.02100   0.02000  -0.00010  -0.00020   0.00030
C524      0.01700   0.01700   0.01600   0.00060   0.00010   0.00030
C526      0.02000   0.02000   0.02000  -0.00040   0.00010   0.00030
C527      0.01750   0.01720   0.01650  -0.00050   0.00020  -0.00020
C529      0.03200   0.03200   0.00500  -0.01400   0.00200  -0.00100
C530      0.01800   0.01900   0.01800   0.00030  -0.00010   0.00010
C532      0.02500   0.03900   0.02000  -0.00300  -0.00600  -0.00500
N533      0.05000   0.01500   0.06900  -0.01400  -0.00500  -0.01100
N534      0.05500   0.05400   0.05500   0.00030   0.00010  -0.00050
O535      0.03300   0.03100   0.03000   0.00190  -0.00030   0.00000
O536      0.01830   0.01940   0.01690   0.00120  -0.00040  -0.00090
O537      0.02300   0.02300   0.02300   0.00050  -0.00060  -0.00060
O538      0.03000   0.02600   0.05500   0.00500  -0.00800  -0.01000
O539      0.07500   0.03300   0.02600   0.02300   0.01900   0.01500
O540      0.02200   0.02300   0.01000   0.00800   0.00600   0.00500
O541      0.02300   0.02000   0.01200   0.00800   0.00300   0.00300
O542      0.02400   0.02500   0.02300  -0.00270  -0.00090   0.00030
O543      0.05700   0.03400   0.02500   0.02200   0.00200  -0.00600
O544      0.04000   0.03800   0.03700  -0.00200   0.00000  -0.00050
O545      0.02500   0.02400   0.02300  -0.00180  -0.00020   0.00120
O546      0.02900   0.02900   0.02700   0.00300   0.00090   0.00070
O547      0.02370   0.02380   0.02260   0.00080  -0.00040   0.00010
O548      0.06800   0.03800   0.01600  -0.02900   0.00700  -0.00100
O549      0.02700   0.02700   0.02400  -0.00210   0.00020   0.00010
O550      0.09600   0.03800   0.04300  -0.04500   0.02800  -0.02400
O551      0.03200   0.04200   0.09200  -0.00400  -0.00900   0.00900
S552      0.03140   0.02080   0.01960   0.00940   0.00100  -0.00500
S553      0.02690   0.02630   0.02020  -0.00980   0.00500   0.00700
Cu554     0.03060   0.02940   0.01080   0.01530  -0.00070  -0.00070
Cu555     0.03220   0.02670   0.00850  -0.01080  -0.00380   0.00160
Cu556     0.03540   0.02550   0.00860   0.01080  -0.00270   0.00010
Cu557     0.03510   0.03170   0.00490   0.01590   0.00060   0.00110
O558      0.05300   0.06300   0.03900  -0.03000  -0.01000   0.01700
C559      0.02500   0.02500   0.02400  -0.00010   0.00020  -0.00020
C560      0.02200   0.02300   0.02200   0.00050   0.00000  -0.00020
C562      0.01400   0.01400   0.01400   0.00020  -0.00010   0.00020
C563      0.03300   0.03300   0.03200   0.00060  -0.00020   0.00060
C565      0.01800   0.01700   0.01800   0.00110  -0.00010   0.00010
C566      0.01900   0.01900   0.01900   0.00100   0.00020  -0.00090
C568      0.02000   0.02100   0.02000   0.00060  -0.00010   0.00000
C569      0.02400   0.02400   0.02300   0.00050   0.00030   0.00030
C570      0.01400   0.01500   0.01400  -0.00010   0.00000  -0.00070
C571      0.08400   0.03000   0.01200   0.03500   0.01700   0.00500
C573      0.05000   0.09800   0.36000   0.00600  -0.01200  -0.12700
C574      0.10900   0.12700   0.08000  -0.01000  -0.00600  -0.05800
C575      0.04000   0.06700   0.07000  -0.02800  -0.01900   0.03200
C577      0.06900   0.06400   0.12200  -0.04600   0.00100  -0.04800
C581      0.05900   0.06100   0.13100  -0.01200   0.03900  -0.01400
C585      0.02100   0.02100   0.02000  -0.00010  -0.00020   0.00030
C586      0.01700   0.01700   0.01600   0.00060   0.00010   0.00030
C588      0.02000   0.02000   0.02000  -0.00040   0.00010   0.00030
C589      0.01750   0.01720   0.01650  -0.00050   0.00020  -0.00020
C591      0.03200   0.03200   0.00500  -0.01400   0.00200  -0.00100
C592      0.01800   0.01900   0.01800   0.00030  -0.00010   0.00010
C594      0.02500   0.03900   0.02000  -0.00300  -0.00600  -0.00500
N595      0.05000   0.01500   0.06900  -0.01400  -0.00500  -0.01100
N596      0.05500   0.05400   0.05500   0.00030   0.00010  -0.00050
O597      0.03300   0.03100   0.03000   0.00190  -0.00030   0.00000
O598      0.01830   0.01940   0.01690   0.00120  -0.00040  -0.00090
O599      0.02300   0.02300   0.02300   0.00050  -0.00060  -0.00060
O600      0.03000   0.02600   0.05500   0.00500  -0.00800  -0.01000
O601      0.07500   0.03300   0.02600   0.02300   0.01900   0.01500
O602      0.02200   0.02300   0.01000   0.00800   0.00600   0.00500
O603      0.02300   0.02000   0.01200   0.00800   0.00300   0.00300
O604      0.02400   0.02500   0.02300  -0.00270  -0.00090   0.00030
O605      0.05700   0.03400   0.02500   0.02200   0.00200  -0.00600
O606      0.04000   0.03800   0.03700  -0.00200   0.00000  -0.00050
O607      0.02500   0.02400   0.02300  -0.00180  -0.00020   0.00120
O608      0.02900   0.02900   0.02700   0.00300   0.00090   0.00070
O609      0.02370   0.02380   0.02260   0.00080  -0.00040   0.00010
O610      0.06800   0.03800   0.01600  -0.02900   0.00700  -0.00100
O611      0.02700   0.02700   0.02400  -0.00210   0.00020   0.00010
O612      0.09600   0.03800   0.04300  -0.04500   0.02800  -0.02400
O613      0.03200   0.04200   0.09200  -0.00400  -0.00900   0.00900
S614      0.03140   0.02080   0.01960   0.00940   0.00100  -0.00500
S615      0.02690   0.02630   0.02020  -0.00980   0.00500   0.00700
Cu616     0.03060   0.02940   0.01080   0.01530  -0.00070  -0.00070
Cu617     0.03220   0.02670   0.00850  -0.01080  -0.00380   0.00160
Cu618     0.03540   0.02550   0.00860   0.01080  -0.00270   0.00010
Cu619     0.03510   0.03170   0.00490   0.01590   0.00060   0.00110
O620      0.05300   0.06300   0.03900  -0.03000  -0.01000   0.01700
C621      0.02500   0.02500   0.02400  -0.00010   0.00020  -0.00020
C622      0.02200   0.02300   0.02200   0.00050   0.00000  -0.00020
C624      0.01400   0.01400   0.01400   0.00020  -0.00010   0.00020
C625      0.03300   0.03300   0.03200   0.00060  -0.00020   0.00060
C627      0.01800   0.01700   0.01800   0.00110  -0.00010   0.00010
C628      0.01900   0.01900   0.01900   0.00100   0.00020  -0.00090
C630      0.02000   0.02100   0.02000   0.00060  -0.00010   0.00000
C631      0.02400   0.02400   0.02300   0.00050   0.00030   0.00030
C632      0.01400   0.01500   0.01400  -0.00010   0.00000  -0.00070
C633      0.08400   0.03000   0.01200   0.03500   0.01700   0.00500
C635      0.05000   0.09800   0.36000   0.00600  -0.01200  -0.12700
C636      0.10900   0.12700   0.08000  -0.01000  -0.00600  -0.05800
C637      0.04000   0.06700   0.07000  -0.02800  -0.01900   0.03200
C639      0.06900   0.06400   0.12200  -0.04600   0.00100  -0.04800
C643      0.05900   0.06100   0.13100  -0.01200   0.03900  -0.01400
C647      0.02100   0.02100   0.02000  -0.00010  -0.00020   0.00030
C648      0.01700   0.01700   0.01600   0.00060   0.00010   0.00030
C650      0.02000   0.02000   0.02000  -0.00040   0.00010   0.00030
C651      0.01750   0.01720   0.01650  -0.00050   0.00020  -0.00020
C653      0.03200   0.03200   0.00500  -0.01400   0.00200  -0.00100
C654      0.01800   0.01900   0.01800   0.00030  -0.00010   0.00010
C656      0.02500   0.03900   0.02000  -0.00300  -0.00600  -0.00500
N657      0.05000   0.01500   0.06900  -0.01400  -0.00500  -0.01100
N658      0.05500   0.05400   0.05500   0.00030   0.00010  -0.00050
O659      0.03300   0.03100   0.03000   0.00190  -0.00030   0.00000
O660      0.01830   0.01940   0.01690   0.00120  -0.00040  -0.00090
O661      0.02300   0.02300   0.02300   0.00050  -0.00060  -0.00060
O662      0.03000   0.02600   0.05500   0.00500  -0.00800  -0.01000
O663      0.07500   0.03300   0.02600   0.02300   0.01900   0.01500
O664      0.02200   0.02300   0.01000   0.00800   0.00600   0.00500
O665      0.02300   0.02000   0.01200   0.00800   0.00300   0.00300
O666      0.02400   0.02500   0.02300  -0.00270  -0.00090   0.00030
O667      0.05700   0.03400   0.02500   0.02200   0.00200  -0.00600
O668      0.04000   0.03800   0.03700  -0.00200   0.00000  -0.00050
O669      0.02500   0.02400   0.02300  -0.00180  -0.00020   0.00120
O670      0.02900   0.02900   0.02700   0.00300   0.00090   0.00070
O671      0.02370   0.02380   0.02260   0.00080  -0.00040   0.00010
O672      0.06800   0.03800   0.01600  -0.02900   0.00700  -0.00100
O673      0.02700   0.02700   0.02400  -0.00210   0.00020   0.00010
O674      0.09600   0.03800   0.04300  -0.04500   0.02800  -0.02400
O675      0.03200   0.04200   0.09200  -0.00400  -0.00900   0.00900
S676      0.03140   0.02080   0.01960   0.00940   0.00100  -0.00500
S677      0.02690   0.02630   0.02020  -0.00980   0.00500   0.00700
Cu678     0.03060   0.02940   0.01080   0.01530  -0.00070  -0.00070
Cu679     0.03220   0.02670   0.00850  -0.01080  -0.00380   0.00160
Cu680     0.03540   0.02550   0.00860   0.01080  -0.00270   0.00010
Cu681     0.03510   0.03170   0.00490   0.01590   0.00060   0.00110
O682      0.05300   0.06300   0.03900  -0.03000  -0.01000   0.01700
C683      0.02500   0.02500   0.02400  -0.00010   0.00020  -0.00020
C684      0.02200   0.02300   0.02200   0.00050   0.00000  -0.00020
C686      0.01400   0.01400   0.01400   0.00020  -0.00010   0.00020
C687      0.03300   0.03300   0.03200   0.00060  -0.00020   0.00060
C689      0.01800   0.01700   0.01800   0.00110  -0.00010   0.00010
C690      0.01900   0.01900   0.01900   0.00100   0.00020  -0.00090
C692      0.02000   0.02100   0.02000   0.00060  -0.00010   0.00000
C693      0.02400   0.02400   0.02300   0.00050   0.00030   0.00030
C694      0.01400   0.01500   0.01400  -0.00010   0.00000  -0.00070
C695      0.08400   0.03000   0.01200   0.03500   0.01700   0.00500
C697      0.05000   0.09800   0.36000   0.00600  -0.01200  -0.12700
C698      0.10900   0.12700   0.08000  -0.01000  -0.00600  -0.05800
C699      0.04000   0.06700   0.07000  -0.02800  -0.01900   0.03200
C701      0.06900   0.06400   0.12200  -0.04600   0.00100  -0.04800
C705      0.05900   0.06100   0.13100  -0.01200   0.03900  -0.01400
C709      0.02100   0.02100   0.02000  -0.00010  -0.00020   0.00030
C710      0.01700   0.01700   0.01600   0.00060   0.00010   0.00030
C712      0.02000   0.02000   0.02000  -0.00040   0.00010   0.00030
C713      0.01750   0.01720   0.01650  -0.00050   0.00020  -0.00020
C715      0.03200   0.03200   0.00500  -0.01400   0.00200  -0.00100
C716      0.01800   0.01900   0.01800   0.00030  -0.00010   0.00010
C718      0.02500   0.03900   0.02000  -0.00300  -0.00600  -0.00500
N719      0.05000   0.01500   0.06900  -0.01400  -0.00500  -0.01100
N720      0.05500   0.05400   0.05500   0.00030   0.00010  -0.00050
O721      0.03300   0.03100   0.03000   0.00190  -0.00030   0.00000
O722      0.01830   0.01940   0.01690   0.00120  -0.00040  -0.00090
O723      0.02300   0.02300   0.02300   0.00050  -0.00060  -0.00060
O724      0.03000   0.02600   0.05500   0.00500  -0.00800  -0.01000
O725      0.07500   0.03300   0.02600   0.02300   0.01900   0.01500
O726      0.02200   0.02300   0.01000   0.00800   0.00600   0.00500
O727      0.02300   0.02000   0.01200   0.00800   0.00300   0.00300
O728      0.02400   0.02500   0.02300  -0.00270  -0.00090   0.00030
O729      0.05700   0.03400   0.02500   0.02200   0.00200  -0.00600
O730      0.04000   0.03800   0.03700  -0.00200   0.00000  -0.00050
O731      0.02500   0.02400   0.02300  -0.00180  -0.00020   0.00120
O732      0.02900   0.02900   0.02700   0.00300   0.00090   0.00070
O733      0.02370   0.02380   0.02260   0.00080  -0.00040   0.00010
O734      0.06800   0.03800   0.01600  -0.02900   0.00700  -0.00100
O735      0.02700   0.02700   0.02400  -0.00210   0.00020   0.00010
O736      0.09600   0.03800   0.04300  -0.04500   0.02800  -0.02400
O737      0.03200   0.04200   0.09200  -0.00400  -0.00900   0.00900
S738      0.03140   0.02080   0.01960   0.00940   0.00100  -0.00500
S739      0.02690   0.02630   0.02020  -0.00980   0.00500   0.00700
Cu740     0.03060   0.02940   0.01080   0.01530  -0.00070  -0.00070
Cu741     0.03220   0.02670   0.00850  -0.01080  -0.00380   0.00160
Cu742     0.03540   0.02550   0.00860   0.01080  -0.00270   0.00010
Cu743     0.03510   0.03170   0.00490   0.01590   0.00060   0.00110
O744      0.05300   0.06300   0.03900  -0.03000  -0.01000   0.01700
C745      0.02500   0.02500   0.02400  -0.00010  -0.00020   0.00020
C746      0.02200   0.02300   0.02200   0.00050   0.00000   0.00020
C748      0.01400   0.01400   0.01400   0.00020   0.00010  -0.00020
C749      0.03300   0.03300   0.03200   0.00060   0.00020  -0.00060
C751      0.01800   0.01700   0.01800   0.00110   0.00010  -0.00010
C752      0.01900   0.01900   0.01900   0.00100  -0.00020   0.00090
C754      0.02000   0.02100   0.02000   0.00060   0.00010   0.00000
C755      0.02400   0.02400   0.02300   0.00050  -0.00030  -0.00030
C756      0.01400   0.01500   0.01400  -0.00010   0.00000   0.00070
C757      0.08400   0.03000   0.01200   0.03500  -0.01700  -0.00500
C759      0.05000   0.09800   0.36000   0.00600   0.01200   0.12700
C760      0.10900   0.12700   0.08000  -0.01000   0.00600   0.05800
C761      0.04000   0.06700   0.07000  -0.02800   0.01900  -0.03200
C763      0.06900   0.06400   0.12200  -0.04600  -0.00100   0.04800
C767      0.05900   0.06100   0.13100  -0.01200  -0.03900   0.01400
C771      0.02100   0.02100   0.02000  -0.00010   0.00020  -0.00030
C772      0.01700   0.01700   0.01600   0.00060  -0.00010  -0.00030
C774      0.02000   0.02000   0.02000  -0.00040  -0.00010  -0.00030
C775      0.01750   0.01720   0.01650  -0.00050  -0.00020   0.00020
C777      0.03200   0.03200   0.00500  -0.01400  -0.00200   0.00100
C778      0.01800   0.01900   0.01800   0.00030   0.00010  -0.00010
C780      0.02500   0.03900   0.02000  -0.00300   0.00600   0.00500
N781      0.05000   0.01500   0.06900  -0.01400   0.00500   0.01100
N782      0.05500   0.05400   0.05500   0.00030  -0.00010   0.00050
O783      0.03300   0.03100   0.03000   0.00190   0.00030   0.00000
O784      0.01830   0.01940   0.01690   0.00120   0.00040   0.00090
O785      0.02300   0.02300   0.02300   0.00050   0.00060   0.00060
O786      0.03000   0.02600   0.05500   0.00500   0.00800   0.01000
O787      0.07500   0.03300   0.02600   0.02300  -0.01900  -0.01500
O788      0.02200   0.02300   0.01000   0.00800  -0.00600  -0.00500
O789      0.02300   0.02000   0.01200   0.00800  -0.00300  -0.00300
O790      0.02400   0.02500   0.02300  -0.00270   0.00090  -0.00030
O791      0.05700   0.03400   0.02500   0.02200  -0.00200   0.00600
O792      0.04000   0.03800   0.03700  -0.00200   0.00000   0.00050
O793      0.02500   0.02400   0.02300  -0.00180   0.00020  -0.00120
O794      0.02900   0.02900   0.02700   0.00300  -0.00090  -0.00070
O795      0.02370   0.02380   0.02260   0.00080   0.00040  -0.00010
O796      0.06800   0.03800   0.01600  -0.02900  -0.00700   0.00100
O797      0.02700   0.02700   0.02400  -0.00210  -0.00020  -0.00010
O798      0.09600   0.03800   0.04300  -0.04500  -0.02800   0.02400
O799      0.03200   0.04200   0.09200  -0.00400   0.00900  -0.00900
S800      0.03140   0.02080   0.01960   0.00940  -0.00100   0.00500
S801      0.02690   0.02630   0.02020  -0.00980  -0.00500  -0.00700
Cu802     0.03060   0.02940   0.01080   0.01530   0.00070   0.00070
Cu803     0.03220   0.02670   0.00850  -0.01080   0.00380  -0.00160
Cu804     0.03540   0.02550   0.00860   0.01080   0.00270  -0.00010
Cu805     0.03510   0.03170   0.00490   0.01590  -0.00060  -0.00110
O806      0.05300   0.06300   0.03900  -0.03000   0.01000  -0.01700
C807      0.02500   0.02500   0.02400  -0.00010  -0.00020   0.00020
C808      0.02200   0.02300   0.02200   0.00050   0.00000   0.00020
C810      0.01400   0.01400   0.01400   0.00020   0.00010  -0.00020
C811      0.03300   0.03300   0.03200   0.00060   0.00020  -0.00060
C813      0.01800   0.01700   0.01800   0.00110   0.00010  -0.00010
C814      0.01900   0.01900   0.01900   0.00100  -0.00020   0.00090
C816      0.02000   0.02100   0.02000   0.00060   0.00010   0.00000
C817      0.02400   0.02400   0.02300   0.00050  -0.00030  -0.00030
C818      0.01400   0.01500   0.01400  -0.00010   0.00000   0.00070
C819      0.08400   0.03000   0.01200   0.03500  -0.01700  -0.00500
C821      0.05000   0.09800   0.36000   0.00600   0.01200   0.12700
C822      0.10900   0.12700   0.08000  -0.01000   0.00600   0.05800
C823      0.04000   0.06700   0.07000  -0.02800   0.01900  -0.03200
C825      0.06900   0.06400   0.12200  -0.04600  -0.00100   0.04800
C829      0.05900   0.06100   0.13100  -0.01200  -0.03900   0.01400
C833      0.02100   0.02100   0.02000  -0.00010   0.00020  -0.00030
C834      0.01700   0.01700   0.01600   0.00060  -0.00010  -0.00030
C836      0.02000   0.02000   0.02000  -0.00040  -0.00010  -0.00030
C837      0.01750   0.01720   0.01650  -0.00050  -0.00020   0.00020
C839      0.03200   0.03200   0.00500  -0.01400  -0.00200   0.00100
C840      0.01800   0.01900   0.01800   0.00030   0.00010  -0.00010
C842      0.02500   0.03900   0.02000  -0.00300   0.00600   0.00500
N843      0.05000   0.01500   0.06900  -0.01400   0.00500   0.01100
N844      0.05500   0.05400   0.05500   0.00030  -0.00010   0.00050
O845      0.03300   0.03100   0.03000   0.00190   0.00030   0.00000
O846      0.01830   0.01940   0.01690   0.00120   0.00040   0.00090
O847      0.02300   0.02300   0.02300   0.00050   0.00060   0.00060
O848      0.03000   0.02600   0.05500   0.00500   0.00800   0.01000
O849      0.07500   0.03300   0.02600   0.02300  -0.01900  -0.01500
O850      0.02200   0.02300   0.01000   0.00800  -0.00600  -0.00500
O851      0.02300   0.02000   0.01200   0.00800  -0.00300  -0.00300
O852      0.02400   0.02500   0.02300  -0.00270   0.00090  -0.00030
O853      0.05700   0.03400   0.02500   0.02200  -0.00200   0.00600
O854      0.04000   0.03800   0.03700  -0.00200   0.00000   0.00050
O855      0.02500   0.02400   0.02300  -0.00180   0.00020  -0.00120
O856      0.02900   0.02900   0.02700   0.00300  -0.00090  -0.00070
O857      0.02370   0.02380   0.02260   0.00080   0.00040  -0.00010
O858      0.06800   0.03800   0.01600  -0.02900  -0.00700   0.00100
O859      0.02700   0.02700   0.02400  -0.00210  -0.00020  -0.00010
O860      0.09600   0.03800   0.04300  -0.04500  -0.02800   0.02400
O861      0.03200   0.04200   0.09200  -0.00400   0.00900  -0.00900
S862      0.03140   0.02080   0.01960   0.00940  -0.00100   0.00500
S863      0.02690   0.02630   0.02020  -0.00980  -0.00500  -0.00700
Cu864     0.03060   0.02940   0.01080   0.01530   0.00070   0.00070
Cu865     0.03220   0.02670   0.00850  -0.01080   0.00380  -0.00160
Cu866     0.03540   0.02550   0.00860   0.01080   0.00270  -0.00010
Cu867     0.03510   0.03170   0.00490   0.01590  -0.00060  -0.00110
O868      0.05300   0.06300   0.03900  -0.03000   0.01000  -0.01700
C869      0.02500   0.02500   0.02400  -0.00010  -0.00020   0.00020
C870      0.02200   0.02300   0.02200   0.00050   0.00000   0.00020
C872      0.01400   0.01400   0.01400   0.00020   0.00010  -0.00020
C873      0.03300   0.03300   0.03200   0.00060   0.00020  -0.00060
C875      0.01800   0.01700   0.01800   0.00110   0.00010  -0.00010
C876      0.01900   0.01900   0.01900   0.00100  -0.00020   0.00090
C878      0.02000   0.02100   0.02000   0.00060   0.00010   0.00000
C879      0.02400   0.02400   0.02300   0.00050  -0.00030  -0.00030
C880      0.01400   0.01500   0.01400  -0.00010   0.00000   0.00070
C881      0.08400   0.03000   0.01200   0.03500  -0.01700  -0.00500
C883      0.05000   0.09800   0.36000   0.00600   0.01200   0.12700
C884      0.10900   0.12700   0.08000  -0.01000   0.00600   0.05800
C885      0.04000   0.06700   0.07000  -0.02800   0.01900  -0.03200
C887      0.06900   0.06400   0.12200  -0.04600  -0.00100   0.04800
C891      0.05900   0.06100   0.13100  -0.01200  -0.03900   0.01400
C895      0.02100   0.02100   0.02000  -0.00010   0.00020  -0.00030
C896      0.01700   0.01700   0.01600   0.00060  -0.00010  -0.00030
C898      0.02000   0.02000   0.02000  -0.00040  -0.00010  -0.00030
C899      0.01750   0.01720   0.01650  -0.00050  -0.00020   0.00020
C901      0.03200   0.03200   0.00500  -0.01400  -0.00200   0.00100
C902      0.01800   0.01900   0.01800   0.00030   0.00010  -0.00010
C904      0.02500   0.03900   0.02000  -0.00300   0.00600   0.00500
N905      0.05000   0.01500   0.06900  -0.01400   0.00500   0.01100
N906      0.05500   0.05400   0.05500   0.00030  -0.00010   0.00050
O907      0.03300   0.03100   0.03000   0.00190   0.00030   0.00000
O908      0.01830   0.01940   0.01690   0.00120   0.00040   0.00090
O909      0.02300   0.02300   0.02300   0.00050   0.00060   0.00060
O910      0.03000   0.02600   0.05500   0.00500   0.00800   0.01000
O911      0.07500   0.03300   0.02600   0.02300  -0.01900  -0.01500
O912      0.02200   0.02300   0.01000   0.00800  -0.00600  -0.00500
O913      0.02300   0.02000   0.01200   0.00800  -0.00300  -0.00300
O914      0.02400   0.02500   0.02300  -0.00270   0.00090  -0.00030
O915      0.05700   0.03400   0.02500   0.02200  -0.00200   0.00600
O916      0.04000   0.03800   0.03700  -0.00200   0.00000   0.00050
O917      0.02500   0.02400   0.02300  -0.00180   0.00020  -0.00120
O918      0.02900   0.02900   0.02700   0.00300  -0.00090  -0.00070
O919      0.02370   0.02380   0.02260   0.00080   0.00040  -0.00010
O920      0.06800   0.03800   0.01600  -0.02900  -0.00700   0.00100
O921      0.02700   0.02700   0.02400  -0.00210  -0.00020  -0.00010
O922      0.09600   0.03800   0.04300  -0.04500  -0.02800   0.02400
O923      0.03200   0.04200   0.09200  -0.00400   0.00900  -0.00900
S924      0.03140   0.02080   0.01960   0.00940  -0.00100   0.00500
S925      0.02690   0.02630   0.02020  -0.00980  -0.00500  -0.00700
Cu926     0.03060   0.02940   0.01080   0.01530   0.00070   0.00070
Cu927     0.03220   0.02670   0.00850  -0.01080   0.00380  -0.00160
Cu928     0.03540   0.02550   0.00860   0.01080   0.00270  -0.00010
Cu929     0.03510   0.03170   0.00490   0.01590  -0.00060  -0.00110
O930      0.05300   0.06300   0.03900  -0.03000   0.01000  -0.01700
C931      0.02500   0.02500   0.02400  -0.00010  -0.00020   0.00020
C932      0.02200   0.02300   0.02200   0.00050   0.00000   0.00020
C934      0.01400   0.01400   0.01400   0.00020   0.00010  -0.00020
C935      0.03300   0.03300   0.03200   0.00060   0.00020  -0.00060
C937      0.01800   0.01700   0.01800   0.00110   0.00010  -0.00010
C938      0.01900   0.01900   0.01900   0.00100  -0.00020   0.00090
C940      0.02000   0.02100   0.02000   0.00060   0.00010   0.00000
C941      0.02400   0.02400   0.02300   0.00050  -0.00030  -0.00030
C942      0.01400   0.01500   0.01400  -0.00010   0.00000   0.00070
C943      0.08400   0.03000   0.01200   0.03500  -0.01700  -0.00500
C945      0.05000   0.09800   0.36000   0.00600   0.01200   0.12700
C946      0.10900   0.12700   0.08000  -0.01000   0.00600   0.05800
C947      0.04000   0.06700   0.07000  -0.02800   0.01900  -0.03200
C949      0.06900   0.06400   0.12200  -0.04600  -0.00100   0.04800
C953      0.05900   0.06100   0.13100  -0.01200  -0.03900   0.01400
C957      0.02100   0.02100   0.02000  -0.00010   0.00020  -0.00030
C958      0.01700   0.01700   0.01600   0.00060  -0.00010  -0.00030
C960      0.02000   0.02000   0.02000  -0.00040  -0.00010  -0.00030
C961      0.01750   0.01720   0.01650  -0.00050  -0.00020   0.00020
C963      0.03200   0.03200   0.00500  -0.01400  -0.00200   0.00100
C964      0.01800   0.01900   0.01800   0.00030   0.00010  -0.00010
C966      0.02500   0.03900   0.02000  -0.00300   0.00600   0.00500
N967      0.05000   0.01500   0.06900  -0.01400   0.00500   0.01100
N968      0.05500   0.05400   0.05500   0.00030  -0.00010   0.00050
O969      0.03300   0.03100   0.03000   0.00190   0.00030   0.00000
O970      0.01830   0.01940   0.01690   0.00120   0.00040   0.00090
O971      0.02300   0.02300   0.02300   0.00050   0.00060   0.00060
O972      0.03000   0.02600   0.05500   0.00500   0.00800   0.01000
O973      0.07500   0.03300   0.02600   0.02300  -0.01900  -0.01500
O974      0.02200   0.02300   0.01000   0.00800  -0.00600  -0.00500
O975      0.02300   0.02000   0.01200   0.00800  -0.00300  -0.00300
O976      0.02400   0.02500   0.02300  -0.00270   0.00090  -0.00030
O977      0.05700   0.03400   0.02500   0.02200  -0.00200   0.00600
O978      0.04000   0.03800   0.03700  -0.00200   0.00000   0.00050
O979      0.02500   0.02400   0.02300  -0.00180   0.00020  -0.00120
O980      0.02900   0.02900   0.02700   0.00300  -0.00090  -0.00070
O981      0.02370   0.02380   0.02260   0.00080   0.00040  -0.00010
O982      0.06800   0.03800   0.01600  -0.02900  -0.00700   0.00100
O983      0.02700   0.02700   0.02400  -0.00210  -0.00020  -0.00010
O984      0.09600   0.03800   0.04300  -0.04500  -0.02800   0.02400
O985      0.03200   0.04200   0.09200  -0.00400   0.00900  -0.00900
S986      0.03140   0.02080   0.01960   0.00940  -0.00100   0.00500
S987      0.02690   0.02630   0.02020  -0.00980  -0.00500  -0.00700
Cu988     0.03060   0.02940   0.01080   0.01530   0.00070   0.00070
Cu989     0.03220   0.02670   0.00850  -0.01080   0.00380  -0.00160
Cu990     0.03540   0.02550   0.00860   0.01080   0.00270  -0.00010
Cu991     0.03510   0.03170   0.00490   0.01590  -0.00060  -0.00110
O992      0.05300   0.06300   0.03900  -0.03000   0.01000  -0.01700
loop_
_geom_bond_atom_site_label_1
_geom_bond_atom_site_label_2
_geom_bond_distance
_geom_bond_site_symmetry_2
_ccdc_geom_bond_type
C1     C2      1.373   .     S
C1     C8      1.410   .     S
C1     C10     1.478   .     S
C2     H3      0.929   .     S
C2     C4      1.408   .     S
C4     C5      1.420   .     S
C4     C11     1.512   .     S
C5     H6      0.930   .     S
C5     C7      1.380   .     S
C7     S56     1.799   .     S
C7     C8      1.352   .     S
C8     H9      0.930   .     S
C10    O39     1.243   .     S
C10    O40     1.290   .     S
C11    O50     1.253   .     S
C11    O51     1.207   .     S
C12    C33     1.528   .     S
C12    O48     1.214   .     S
C12    O49     1.234   .     S
C13    H14     0.929   .     S
C13    N38     1.263   .     S
C13    O47     1.236   1_556 S
C15    N38     1.433   .     S
C16    N38     1.369   .     S
C17    H18     0.931   .     S
C17    N37     1.350   .     S
C17    O52     1.304   .     S
C19    H20     0.961   .     S
C19    H21     0.958   .     S
C19    H22     0.961   .     S
C19    N37     1.449   .     S
C23    H24     0.959   .     S
C23    H25     0.961   .     S
C23    H26     0.959   .     S
C23    N37     1.471   .     S
C27    C30     1.483   .     S
C27    O46     1.265   .     S
C27    O53     1.312   .     S
C28    H29     0.929   .     S
C28    C30     1.342   .     S
C28    C36     1.415   .     S
C30    C31     1.364   .     S
C31    H32     0.930   .     S
C31    C33     1.416   .     S
C33    C34     1.436   .     S
C34    H35     0.930   .     S
C34    C36     1.392   .     S
C36    S57     1.757   .     S
O39    Cu61    1.958   .     S
O40    Cu60    1.952   .     S
O41    S56     1.453   .     S
O41    Cu802   2.412   .     S
O42    S56     1.451   .     S
O42    Cu59    2.305   .     S
O43    S56     1.465   .     S
O43    Cu805   2.406   .     S
O44    Cu58    1.966   1_554 S
O44    Cu60    1.945   .     S
O44    Cu61    2.008   .     S
O45    Cu58    1.973   1_554 S
O45    Cu865   1.964   .     S
O45    Cu61    2.007   .     S
O46    Cu805   1.987   .     S
O47    C13     1.236   1_554 S
O47    Cu60    1.981   .     S
O48    Cu618   1.911   .     S
O49    Cu616   1.939   .     S
O50    Cu368   1.917   .     S
O51    Cu741   1.917   .     S
O52    Cu59    1.927   .     S
O53    Cu59    1.953   .     S
O54    S57     1.452   .     S
O54    Cu185   2.708   1_655 S
O55    S57     1.423   .     S
O55    Cu184   2.270   1_655 S
S57    O62     1.376   .     S
Cu58   O44     1.966   1_556 S
Cu58   O45     1.973   1_556 S
Cu58   O847    2.412   .     S
Cu58   O731    1.939   .     S
Cu58   O360    1.917   .     S
Cu59   O789    1.964   .     S
Cu59   O609    1.917   .     S
Cu60   O730    1.911   1_554 S
Cu60   O179    2.270   .     S
Cu61   O849    2.406   .     S
Cu61   O852    1.987   .     S
Cu61   O178    2.708   .     S
C63    C64     1.373   .     S
C63    C70     1.410   .     S
C63    C72     1.478   .     S
C64    H65     0.929   .     S
C64    C66     1.408   .     S
C66    C67     1.420   .     S
C66    C73     1.512   .     S
C67    H68     0.930   .     S
C67    C69     1.380   .     S
C69    S118    1.799   .     S
C69    C70     1.352   .     S
C70    H71     0.930   .     S
C72    O101    1.243   .     S
C72    O102    1.290   .     S
C73    O112    1.253   .     S
C73    O113    1.207   .     S
C74    C95     1.528   .     S
C74    O110    1.214   .     S
C74    O111    1.234   .     S
C75    H76     0.929   .     S
C75    N100    1.263   .     S
C75    O109    1.236   .     S
C77    N100    1.433   .     S
C78    N100    1.369   .     S
C79    H80     0.931   .     S
C79    N99     1.350   .     S
C79    O114    1.304   .     S
C81    H82     0.961   .     S
C81    H83     0.958   .     S
C81    H84     0.961   .     S
C81    N99     1.449   .     S
C85    H86     0.959   .     S
C85    H87     0.961   .     S
C85    H88     0.959   .     S
C85    N99     1.471   .     S
C89    C92     1.483   .     S
C89    O108    1.265   .     S
C89    O115    1.312   .     S
C90    H91     0.929   .     S
C90    C92     1.342   .     S
C90    C98     1.415   1_556 S
C92    C93     1.364   1_556 S
C93    C92     1.364   1_554 S
C93    H94     0.930   .     S
C93    C95     1.416   .     S
C95    C96     1.436   .     S
C96    H97     0.930   .     S
C96    C98     1.392   .     S
C98    C90     1.415   1_554 S
C98    S119    1.757   .     S
O101   Cu123   1.958   .     S
O102   Cu122   1.952   .     S
O103   S118    1.453   .     S
O103   Cu864   2.412   .     S
O104   S118    1.451   .     S
O104   Cu121   2.305   .     S
O105   S118    1.465   .     S
O105   Cu867   2.406   .     S
O106   Cu120   1.966   .     S
O106   Cu122   1.945   .     S
O106   Cu123   2.008   .     S
O107   Cu120   1.973   .     S
O107   Cu803   1.964   .     S
O107   Cu123   2.007   .     S
O108   Cu867   1.987   .     S
O109   Cu122   1.981   .     S
O110   Cu556   1.911   .     S
O111   Cu554   1.939   1_565 S
O112   Cu306   1.917   .     S
O113   Cu679   1.917   1_556 S
O114   Cu121   1.927   .     S
O115   Cu121   1.953   .     S
O116   S119    1.452   .     S
O116   Cu247   2.708   1_655 S
O117   S119    1.423   .     S
O117   Cu246   2.270   1_655 S
S119   O124    1.376   1_554 S
Cu120  O785    2.412   .     S
Cu120  O669    1.939   .     S
Cu120  O298    1.917   .     S
Cu121  O851    1.964   .     S
Cu121  O547    1.917   .     S
Cu122  O668    1.911   .     S
Cu122  O241    2.270   .     S
Cu123  O787    2.406   .     S
Cu123  O790    1.987   .     S
Cu123  O240    2.708   .     S
O124   S119    1.376   1_556 S
C125   C126    1.373   .     S
C125   C132    1.410   .     S
C125   C134    1.478   .     S
C126   H127    0.929   .     S
C126   C128    1.408   .     S
C128   C129    1.420   .     S
C128   C135    1.512   .     S
C129   H130    0.930   .     S
C129   C131    1.380   .     S
C131   S180    1.799   .     S
C131   C132    1.352   .     S
C132   H133    0.930   .     S
C134   O163    1.243   .     S
C134   O164    1.290   .     S
C135   O174    1.253   .     S
C135   O175    1.207   .     S
C136   C157    1.528   .     S
C136   O172    1.214   .     S
C136   O173    1.234   .     S
C137   H138    0.929   .     S
C137   N162    1.263   .     S
C137   O171    1.236   .     S
C139   N162    1.433   .     S
C140   N162    1.369   .     S
C141   H142    0.931   .     S
C141   N161    1.350   .     S
C141   O176    1.304   .     S
C143   H144    0.961   .     S
C143   H145    0.958   .     S
C143   H146    0.961   .     S
C143   N161    1.449   .     S
C147   H148    0.959   .     S
C147   H149    0.961   .     S
C147   H150    0.959   .     S
C147   N161    1.471   .     S
C151   C154    1.483   .     S
C151   O170    1.265   .     S
C151   O177    1.312   .     S
C152   H153    0.929   .     S
C152   C154    1.342   .     S
C152   C160    1.415   1_556 S
C154   C155    1.364   1_556 S
C155   C154    1.364   1_554 S
C155   H156    0.930   .     S
C155   C157    1.416   .     S
C157   C158    1.436   .     S
C158   H159    0.930   .     S
C158   C160    1.392   .     S
C160   C152    1.415   1_554 S
C160   S181    1.757   .     S
O163   Cu185   1.958   .     S
O164   Cu184   1.952   .     S
O165   S180    1.453   .     S
O165   Cu926   2.412   .     S
O166   S180    1.451   .     S
O166   Cu183   2.305   .     S
O167   S180    1.465   .     S
O167   Cu929   2.406   .     S
O168   Cu182   1.966   .     S
O168   Cu184   1.945   .     S
O168   Cu185   2.008   .     S
O169   Cu182   1.973   1_655 S
O169   Cu989   1.964   .     S
O169   Cu185   2.007   1_655 S
O170   Cu929   1.987   .     S
O171   Cu184   1.981   .     S
O172   Cu742   1.911   .     S
O173   Cu740   1.939   .     S
O174   Cu492   1.917   1_455 S
O175   Cu617   1.917   1_556 S
O176   Cu183   1.927   .     S
O177   Cu183   1.953   .     S
O178   S181    1.452   .     S
O179   S181    1.423   .     S
S181   O186    1.376   1_554 S
Cu182  O169    1.973   1_455 S
Cu182  O971    2.412   .     S
Cu182  O607    1.939   .     S
Cu182  O484    1.917   1_455 S
Cu183  O913    1.964   .     S
Cu183  O733    1.917   .     S
Cu184  O606    1.911   .     S
Cu184  O55     2.270   1_455 S
Cu185  O973    2.406   .     S
Cu185  O976    1.987   1_455 S
Cu185  O54     2.708   1_455 S
Cu185  O169    2.007   1_455 S
O186   S181    1.376   1_556 S
C187   C188    1.373   .     S
C187   C194    1.410   .     S
C187   C196    1.478   .     S
C188   H189    0.929   .     S
C188   C190    1.408   .     S
C190   C191    1.420   .     S
C190   C197    1.512   .     S
C191   H192    0.930   .     S
C191   C193    1.380   .     S
C193   S242    1.799   .     S
C193   C194    1.352   .     S
C194   H195    0.930   .     S
C196   O225    1.243   .     S
C196   O226    1.290   .     S
C197   O236    1.253   .     S
C197   O237    1.207   .     S
C198   C219    1.528   .     S
C198   O234    1.214   .     S
C198   O235    1.234   .     S
C199   H200    0.929   .     S
C199   N224    1.263   .     S
C199   O233    1.236   1_556 S
C201   N224    1.433   .     S
C202   N224    1.369   .     S
C203   H204    0.931   .     S
C203   N223    1.350   .     S
C203   O238    1.304   .     S
C205   H206    0.961   .     S
C205   H207    0.958   .     S
C205   H208    0.961   .     S
C205   N223    1.449   .     S
C209   H210    0.959   .     S
C209   H211    0.961   .     S
C209   H212    0.959   .     S
C209   N223    1.471   .     S
C213   C216    1.483   .     S
C213   O232    1.265   .     S
C213   O239    1.312   .     S
C214   H215    0.929   .     S
C214   C216    1.342   .     S
C214   C222    1.415   .     S
C216   C217    1.364   .     S
C217   H218    0.930   .     S
C217   C219    1.416   .     S
C219   C220    1.436   .     S
C220   H221    0.930   .     S
C220   C222    1.392   .     S
C222   S243    1.757   .     S
O225   Cu247   1.958   .     S
O226   Cu246   1.952   .     S
O227   S242    1.453   .     S
O227   Cu988   2.412   .     S
O228   S242    1.451   .     S
O228   Cu245   2.305   .     S
O229   S242    1.465   .     S
O229   Cu991   2.406   .     S
O230   Cu244   1.966   1_554 S
O230   Cu246   1.945   .     S
O230   Cu247   2.008   .     S
O231   Cu244   1.973   1_654 S
O231   Cu927   1.964   .     S
O231   Cu247   2.007   1_655 S
O232   Cu991   1.987   .     S
O233   C199    1.236   1_554 S
O233   Cu246   1.981   .     S
O234   Cu680   1.911   .     S
O235   Cu678   1.939   1_565 S
O236   Cu430   1.917   1_455 S
O237   Cu555   1.917   .     S
O238   Cu245   1.927   .     S
O239   Cu245   1.953   .     S
O240   S243    1.452   .     S
O241   S243    1.423   .     S
S243   O248    1.376   .     S
Cu244  O230    1.966   1_556 S
Cu244  O231    1.973   1_456 S
Cu244  O909    2.412   .     S
Cu244  O545    1.939   .     S
Cu244  O422    1.917   1_455 S
Cu245  O975    1.964   .     S
Cu245  O671    1.917   .     S
Cu246  O544    1.911   1_554 S
Cu246  O117    2.270   1_455 S
Cu247  O911    2.406   .     S
Cu247  O914    1.987   1_455 S
Cu247  O116    2.708   1_455 S
Cu247  O231    2.007   1_455 S
C249   C250    1.373   .     S
C249   C256    1.410   .     S
C249   C258    1.478   .     S
C250   H251    0.929   .     S
C250   C252    1.408   .     S
C252   C253    1.420   .     S
C252   C259    1.512   .     S
C253   H254    0.930   .     S
C253   C255    1.380   .     S
C255   S304    1.799   .     S
C255   C256    1.352   .     S
C256   H257    0.930   .     S
C258   O287    1.243   .     S
C258   O288    1.290   .     S
C259   O298    1.253   .     S
C259   O299    1.207   .     S
C260   C281    1.528   .     S
C260   O296    1.214   .     S
C260   O297    1.234   .     S
C261   H262    0.929   .     S
C261   N286    1.263   .     S
C261   O295    1.236   1_556 S
C263   N286    1.433   .     S
C264   N286    1.369   .     S
C265   H266    0.931   .     S
C265   N285    1.350   .     S
C265   O300    1.304   .     S
C267   H268    0.961   .     S
C267   H269    0.958   .     S
C267   H270    0.961   .     S
C267   N285    1.449   .     S
C271   H272    0.959   .     S
C271   H273    0.961   .     S
C271   H274    0.959   .     S
C271   N285    1.471   .     S
C275   C278    1.483   .     S
C275   O294    1.265   .     S
C275   O301    1.312   .     S
C276   H277    0.929   .     S
C276   C278    1.342   .     S
C276   C284    1.415   .     S
C278   C279    1.364   .     S
C279   H280    0.930   .     S
C279   C281    1.416   .     S
C281   C282    1.436   .     S
C282   H283    0.930   .     S
C282   C284    1.392   .     S
C284   S305    1.757   .     S
O287   Cu309   1.958   .     S
O288   Cu308   1.952   .     S
O289   S304    1.453   .     S
O289   Cu740   2.412   .     S
O290   S304    1.451   .     S
O290   Cu307   2.305   .     S
O291   S304    1.465   .     S
O291   Cu743   2.406   .     S
O292   Cu306   1.966   1_554 S
O292   Cu308   1.945   .     S
O292   Cu309   2.008   .     S
O293   Cu306   1.973   1_554 S
O293   Cu679   1.964   .     S
O293   Cu309   2.007   .     S
O294   Cu743   1.987   .     S
O295   C261    1.236   1_554 S
O295   Cu308   1.981   .     S
O296   Cu928   1.911   .     S
O297   Cu926   1.939   .     S
O299   Cu803   1.917   .     S
O300   Cu307   1.927   .     S
O301   Cu307   1.953   .     S
O302   S305    1.452   .     S
O302   Cu433   2.708   1_455 S
O303   S305    1.423   .     S
O303   Cu432   2.270   1_455 S
S305   O310    1.376   .     S
Cu306  O292    1.966   1_556 S
Cu306  O293    1.973   1_556 S
Cu306  O661    2.412   .     S
Cu306  O793    1.939   .     S
Cu307  O727    1.964   .     S
Cu307  O919    1.917   .     S
Cu308  O792    1.911   1_554 S
Cu308  O427    2.270   .     S
Cu309  O663    2.406   .     S
Cu309  O666    1.987   .     S
Cu309  O426    2.708   .     S
C311   C312    1.373   .     S
C311   C318    1.410   .     S
C311   C320    1.478   .     S
C312   H313    0.929   .     S
C312   C314    1.408   .     S
C314   C315    1.420   .     S
C314   C321    1.512   .     S
C315   H316    0.930   .     S
C315   C317    1.380   .     S
C317   S366    1.799   .     S
C317   C318    1.352   .     S
C318   H319    0.930   .     S
C320   O349    1.243   .     S
C320   O350    1.290   .     S
C321   O360    1.253   .     S
C321   O361    1.207   .     S
C322   C343    1.528   .     S
C322   O358    1.214   .     S
C322   O359    1.234   .     S
C323   H324    0.929   .     S
C323   N348    1.263   .     S
C323   O357    1.236   .     S
C325   N348    1.433   .     S
C326   N348    1.369   .     S
C327   H328    0.931   .     S
C327   N347    1.350   .     S
C327   O362    1.304   .     S
C329   H330    0.961   .     S
C329   H331    0.958   .     S
C329   H332    0.961   .     S
C329   N347    1.449   .     S
C333   H334    0.959   .     S
C333   H335    0.961   .     S
C333   H336    0.959   .     S
C333   N347    1.471   .     S
C337   C340    1.483   .     S
C337   O356    1.265   .     S
C337   O363    1.312   .     S
C338   H339    0.929   .     S
C338   C340    1.342   .     S
C338   C346    1.415   1_556 S
C340   C341    1.364   1_556 S
C341   C340    1.364   1_554 S
C341   H342    0.930   .     S
C341   C343    1.416   .     S
C343   C344    1.436   .     S
C344   H345    0.930   .     S
C344   C346    1.392   .     S
C346   C338    1.415   1_554 S
C346   S367    1.757   .     S
O349   Cu371   1.958   .     S
O350   Cu370   1.952   .     S
O351   S366    1.453   .     S
O351   Cu678   2.412   .     S
O352   S366    1.451   .     S
O352   Cu369   2.305   .     S
O353   S366    1.465   .     S
O353   Cu681   2.406   .     S
O354   Cu368   1.966   .     S
O354   Cu370   1.945   .     S
O354   Cu371   2.008   .     S
O355   Cu368   1.973   .     S
O355   Cu741   1.964   .     S
O355   Cu371   2.007   .     S
O356   Cu681   1.987   .     S
O357   Cu370   1.981   .     S
O358   Cu990   1.911   .     S
O359   Cu988   1.939   1_545 S
O361   Cu865   1.917   1_556 S
O362   Cu369   1.927   .     S
O363   Cu369   1.953   .     S
O364   S367    1.452   .     S
O364   Cu495   2.708   1_455 S
O365   S367    1.423   .     S
O365   Cu494   2.270   1_455 S
S367   O372    1.376   1_554 S
Cu368  O723    2.412   .     S
Cu368  O855    1.939   .     S
Cu369  O665    1.964   .     S
Cu369  O981    1.917   .     S
Cu370  O854    1.911   .     S
Cu370  O489    2.270   .     S
Cu371  O725    2.406   .     S
Cu371  O728    1.987   .     S
Cu371  O488    2.708   .     S
O372   S367    1.376   1_556 S
C373   C374    1.373   .     S
C373   C380    1.410   .     S
C373   C382    1.478   .     S
C374   H375    0.929   .     S
C374   C376    1.408   .     S
C376   C377    1.420   .     S
C376   C383    1.512   .     S
C377   H378    0.930   .     S
C377   C379    1.380   .     S
C379   S428    1.799   .     S
C379   C380    1.352   .     S
C380   H381    0.930   .     S
C382   O411    1.243   .     S
C382   O412    1.290   .     S
C383   O422    1.253   .     S
C383   O423    1.207   .     S
C384   C405    1.528   .     S
C384   O420    1.214   .     S
C384   O421    1.234   .     S
C385   H386    0.929   .     S
C385   N410    1.263   .     S
C385   O419    1.236   .     S
C387   N410    1.433   .     S
C388   N410    1.369   .     S
C389   H390    0.931   .     S
C389   N409    1.350   .     S
C389   O424    1.304   .     S
C391   H392    0.961   .     S
C391   H393    0.958   .     S
C391   H394    0.961   .     S
C391   N409    1.449   .     S
C395   H396    0.959   .     S
C395   H397    0.961   .     S
C395   H398    0.959   .     S
C395   N409    1.471   .     S
C399   C402    1.483   .     S
C399   O418    1.265   .     S
C399   O425    1.312   .     S
C400   H401    0.929   .     S
C400   C402    1.342   .     S
C400   C408    1.415   1_556 S
C402   C403    1.364   1_556 S
C403   C402    1.364   1_554 S
C403   H404    0.930   .     S
C403   C405    1.416   .     S
C405   C406    1.436   .     S
C406   H407    0.930   .     S
C406   C408    1.392   .     S
C408   C400    1.415   1_554 S
C408   S429    1.757   .     S
O411   Cu433   1.958   .     S
O412   Cu432   1.952   .     S
O413   S428    1.453   .     S
O413   Cu616   2.412   .     S
O414   S428    1.451   .     S
O414   Cu431   2.305   .     S
O415   S428    1.465   .     S
O415   Cu619   2.406   .     S
O416   Cu430   1.966   .     S
O416   Cu432   1.945   .     S
O416   Cu433   2.008   .     S
O417   Cu430   1.973   1_455 S
O417   Cu555   1.964   .     S
O417   Cu433   2.007   1_455 S
O418   Cu619   1.987   .     S
O419   Cu432   1.981   .     S
O420   Cu804   1.911   .     S
O421   Cu802   1.939   .     S
O422   Cu244   1.917   1_655 S
O423   Cu927   1.917   1_556 S
O424   Cu431   1.927   .     S
O425   Cu431   1.953   .     S
O426   S429    1.452   .     S
O427   S429    1.423   .     S
S429   O434    1.376   1_554 S
Cu430  O417    1.973   1_655 S
Cu430  O537    2.412   .     S
Cu430  O917    1.939   .     S
Cu430  O236    1.917   1_655 S
Cu431  O603    1.964   .     S
Cu431  O795    1.917   .     S
Cu432  O916    1.911   .     S
Cu432  O303    2.270   1_655 S
Cu433  O539    2.406   .     S
Cu433  O542    1.987   1_655 S
Cu433  O302    2.708   1_655 S
Cu433  O417    2.007   1_655 S
O434   S429    1.376   1_556 S
C435   C436    1.373   .     S
C435   C442    1.410   .     S
C435   C444    1.478   .     S
C436   H437    0.929   .     S
C436   C438    1.408   .     S
C438   C439    1.420   .     S
C438   C445    1.512   .     S
C439   H440    0.930   .     S
C439   C441    1.380   .     S
C441   S490    1.799   .     S
C441   C442    1.352   .     S
C442   H443    0.930   .     S
C444   O473    1.243   .     S
C444   O474    1.290   .     S
C445   O484    1.253   .     S
C445   O485    1.207   .     S
C446   C467    1.528   .     S
C446   O482    1.214   .     S
C446   O483    1.234   .     S
C447   H448    0.929   .     S
C447   N472    1.263   .     S
C447   O481    1.236   1_556 S
C449   N472    1.433   .     S
C450   N472    1.369   .     S
C451   H452    0.931   .     S
C451   N471    1.350   .     S
C451   O486    1.304   .     S
C453   H454    0.961   .     S
C453   H455    0.958   .     S
C453   H456    0.961   .     S
C453   N471    1.449   .     S
C457   H458    0.959   .     S
C457   H459    0.961   .     S
C457   H460    0.959   .     S
C457   N471    1.471   .     S
C461   C464    1.483   .     S
C461   O480    1.265   .     S
C461   O487    1.312   .     S
C462   H463    0.929   .     S
C462   C464    1.342   .     S
C462   C470    1.415   .     S
C464   C465    1.364   .     S
C465   H466    0.930   .     S
C465   C467    1.416   .     S
C467   C468    1.436   .     S
C468   H469    0.930   .     S
C468   C470    1.392   .     S
C470   S491    1.757   .     S
O473   Cu495   1.958   .     S
O474   Cu494   1.952   .     S
O475   S490    1.453   .     S
O475   Cu554   2.412   .     S
O476   S490    1.451   .     S
O476   Cu493   2.305   .     S
O477   S490    1.465   .     S
O477   Cu557   2.406   .     S
O478   Cu492   1.966   1_554 S
O478   Cu494   1.945   .     S
O478   Cu495   2.008   .     S
O479   Cu492   1.973   1_454 S
O479   Cu617   1.964   .     S
O479   Cu495   2.007   1_455 S
O480   Cu557   1.987   .     S
O481   C447    1.236   1_554 S
O481   Cu494   1.981   .     S
O482   Cu866   1.911   .     S
O483   Cu864   1.939   1_545 S
O484   Cu182   1.917   1_655 S
O485   Cu989   1.917   .     S
O486   Cu493   1.927   .     S
O487   Cu493   1.953   .     S
O488   S491    1.452   .     S
O489   S491    1.423   .     S
S491   O496    1.376   .     S
Cu492  O478    1.966   1_556 S
Cu492  O479    1.973   1_656 S
Cu492  O599    2.412   .     S
Cu492  O979    1.939   .     S
Cu492  O174    1.917   1_655 S
Cu493  O541    1.964   .     S
Cu493  O857    1.917   .     S
Cu494  O978    1.911   1_554 S
Cu494  O365    2.270   1_655 S
Cu495  O601    2.406   .     S
Cu495  O604    1.987   1_655 S
Cu495  O364    2.708   1_655 S
Cu495  O479    2.007   1_655 S
C497   C498    1.373   .     S
C497   C504    1.410   .     S
C497   C506    1.478   .     S
C498   H499    0.929   .     S
C498   C500    1.408   .     S
C500   C501    1.420   .     S
C500   C507    1.512   .     S
C501   H502    0.930   .     S
C501   C503    1.380   .     S
C503   S552    1.799   .     S
C503   C504    1.352   .     S
C504   H505    0.930   .     S
C506   O535    1.243   .     S
C506   O536    1.290   .     S
C507   O546    1.253   .     S
C507   O547    1.207   .     S
C508   C529    1.528   .     S
C508   O544    1.214   .     S
C508   O545    1.234   .     S
C509   H510    0.929   .     S
C509   N534    1.263   .     S
C509   O543    1.236   .     S
C511   N534    1.433   .     S
C512   N534    1.369   .     S
C513   H514    0.931   .     S
C513   N533    1.350   .     S
C513   O548    1.304   .     S
C515   H516    0.961   .     S
C515   H517    0.958   .     S
C515   H518    0.961   .     S
C515   N533    1.449   .     S
C519   H520    0.959   .     S
C519   H521    0.961   .     S
C519   H522    0.959   .     S
C519   N533    1.471   .     S
C523   C526    1.483   .     S
C523   O542    1.265   .     S
C523   O549    1.312   .     S
C524   H525    0.929   .     S
C524   C526    1.342   .     S
C524   C532    1.415   .     S
C526   C527    1.364   .     S
C527   H528    0.930   .     S
C527   C529    1.416   .     S
C529   C530    1.436   .     S
C530   H531    0.930   .     S
C530   C532    1.392   .     S
C532   S553    1.757   .     S
O535   Cu557   1.958   1_565 S
O536   Cu556   1.952   .     S
O537   S552    1.453   .     S
O538   S552    1.451   .     S
O538   Cu555   2.305   1_655 S
O539   S552    1.465   .     S
O540   Cu554   1.966   1_565 S
O540   Cu556   1.945   .     S
O540   Cu557   2.008   1_565 S
O541   Cu554   1.973   .     S
O541   Cu557   2.007   .     S
O542   Cu433   1.987   1_455 S
O543   Cu556   1.981   .     S
O544   Cu246   1.911   1_556 S
O546   Cu864   1.917   .     S
O548   Cu555   1.927   .     S
O549   Cu555   1.953   .     S
O550   S553    1.452   .     S
O550   Cu681   2.708   1_565 S
O551   S553    1.423   .     S
O551   Cu680   2.270   .     S
S553   O558    1.376   .     S
Cu554  O540    1.966   1_545 S
Cu554  O111    1.939   1_545 S
Cu554  O856    1.917   .     S
Cu555  O538    2.305   1_455 S
Cu556  O675    2.270   .     S
Cu557  O535    1.958   1_545 S
Cu557  O674    2.708   1_545 S
Cu557  O540    2.008   1_545 S
C559   C560    1.373   1_556 S
C559   C566    1.410   .     S
C559   C568    1.478   .     S
C560   C559    1.373   1_554 S
C560   H561    0.929   .     S
C560   C562    1.408   .     S
C562   C563    1.420   .     S
C562   C569    1.512   .     S
C563   H564    0.930   .     S
C563   C565    1.380   .     S
C565   S614    1.799   .     S
C565   C566    1.352   1_554 S
C566   H567    0.930   .     S
C566   C565    1.352   1_556 S
C568   O597    1.243   .     S
C568   O598    1.290   .     S
C569   O608    1.253   .     S
C569   O609    1.207   .     S
C570   C591    1.528   .     S
C570   O606    1.214   .     S
C570   O607    1.234   .     S
C571   H572    0.929   .     S
C571   N596    1.263   .     S
C571   O605    1.236   .     S
C573   N596    1.433   .     S
C574   N596    1.369   .     S
C575   H576    0.931   .     S
C575   N595    1.350   .     S
C575   O610    1.304   .     S
C577   H578    0.961   .     S
C577   H579    0.958   .     S
C577   H580    0.961   .     S
C577   N595    1.449   .     S
C581   H582    0.959   .     S
C581   H583    0.961   .     S
C581   H584    0.959   1_554 S
C581   N595    1.471   .     S
H584   C581    0.959   1_556 S
C585   C588    1.483   .     S
C585   O604    1.265   .     S
C585   O611    1.312   .     S
C586   H587    0.929   .     S
C586   C588    1.342   .     S
C586   C594    1.415   .     S
C588   C589    1.364   .     S
C589   H590    0.930   .     S
C589   C591    1.416   .     S
C591   C592    1.436   .     S
C592   H593    0.930   .     S
C592   C594    1.392   .     S
C594   S615    1.757   .     S
O597   Cu619   1.958   .     S
O598   Cu618   1.952   .     S
O599   S614    1.453   1_556 S
O600   S614    1.451   .     S
O600   Cu617   2.305   1_655 S
O601   S614    1.465   .     S
O602   Cu616   1.966   .     S
O602   Cu618   1.945   .     S
O602   Cu619   2.008   .     S
O603   Cu616   1.973   .     S
O603   Cu619   2.007   .     S
O604   Cu495   1.987   1_455 S
O605   Cu618   1.981   .     S
O608   Cu802   1.917   .     S
O610   Cu617   1.927   .     S
O611   Cu617   1.953   .     S
O612   S615    1.452   .     S
O612   Cu743   2.708   .     S
O613   S615    1.423   .     S
O613   Cu742   2.270   .     S
S614   O599    1.453   1_554 S
S615   O620    1.376   .     S
Cu616  O794    1.917   .     S
Cu617  O600    2.305   1_455 S
Cu617  O175    1.917   1_554 S
Cu618  O737    2.270   .     S
Cu619  O736    2.708   .     S
C621   C622    1.373   1_556 S
C621   C628    1.410   .     S
C621   C630    1.478   .     S
C622   C621    1.373   1_554 S
C622   H623    0.929   .     S
C622   C624    1.408   .     S
C624   C625    1.420   .     S
C624   C631    1.512   .     S
C625   H626    0.930   .     S
C625   C627    1.380   .     S
C627   S676    1.799   .     S
C627   C628    1.352   1_554 S
C628   H629    0.930   .     S
C628   C627    1.352   1_556 S
C630   O659    1.243   .     S
C630   O660    1.290   .     S
C631   O670    1.253   .     S
C631   O671    1.207   .     S
C632   C653    1.528   .     S
C632   O668    1.214   .     S
C632   O669    1.234   .     S
C633   H634    0.929   .     S
C633   N658    1.263   .     S
C633   O667    1.236   .     S
C635   N658    1.433   .     S
C636   N658    1.369   .     S
C637   H638    0.931   .     S
C637   N657    1.350   .     S
C637   O672    1.304   .     S
C639   H640    0.961   .     S
C639   H641    0.958   .     S
C639   H642    0.961   .     S
C639   N657    1.449   .     S
C643   H644    0.959   .     S
C643   H645    0.961   .     S
C643   H646    0.959   1_554 S
C643   N657    1.471   .     S
H646   C643    0.959   1_556 S
C647   C650    1.483   .     S
C647   O666    1.265   .     S
C647   O673    1.312   .     S
C648   H649    0.929   .     S
C648   C650    1.342   .     S
C648   C656    1.415   .     S
C650   C651    1.364   .     S
C651   H652    0.930   .     S
C651   C653    1.416   .     S
C653   C654    1.436   .     S
C654   H655    0.930   .     S
C654   C656    1.392   .     S
C656   S677    1.757   .     S
O659   Cu681   1.958   1_565 S
O660   Cu680   1.952   .     S
O661   S676    1.453   1_556 S
O662   S676    1.451   .     S
O662   Cu679   2.305   .     S
O663   S676    1.465   .     S
O664   Cu678   1.966   1_565 S
O664   Cu680   1.945   .     S
O664   Cu681   2.008   1_565 S
O665   Cu678   1.973   .     S
O665   Cu681   2.007   .     S
O667   Cu680   1.981   .     S
O670   Cu988   1.917   .     S
O672   Cu679   1.927   .     S
O673   Cu679   1.953   .     S
O674   S677    1.452   .     S
O674   Cu557   2.708   1_565 S
O675   S677    1.423   .     S
S676   O661    1.453   1_554 S
S677   O682    1.376   .     S
Cu678  O664    1.966   1_545 S
Cu678  O235    1.939   1_545 S
Cu678  O980    1.917   .     S
Cu679  O113    1.917   1_554 S
Cu681  O659    1.958   1_545 S
Cu681  O550    2.708   1_545 S
Cu681  O664    2.008   1_545 S
C683   C684    1.373   .     S
C683   C690    1.410   .     S
C683   C692    1.478   .     S
C684   H685    0.929   .     S
C684   C686    1.408   .     S
C686   C687    1.420   .     S
C686   C693    1.512   .     S
C687   H688    0.930   .     S
C687   C689    1.380   .     S
C689   S738    1.799   .     S
C689   C690    1.352   .     S
C690   H691    0.930   .     S
C692   O721    1.243   .     S
C692   O722    1.290   .     S
C693   O732    1.253   .     S
C693   O733    1.207   .     S
C694   C715    1.528   .     S
C694   O730    1.214   .     S
C694   O731    1.234   .     S
C695   H696    0.929   .     S
C695   N720    1.263   .     S
C695   O729    1.236   .     S
C697   N720    1.433   .     S
C698   N720    1.369   .     S
C699   H700    0.931   .     S
C699   N719    1.350   .     S
C699   O734    1.304   .     S
C701   H702    0.961   .     S
C701   H703    0.958   .     S
C701   H704    0.961   .     S
C701   N719    1.449   .     S
C705   H706    0.959   .     S
C705   H707    0.961   .     S
C705   H708    0.959   .     S
C705   N719    1.471   .     S
C709   C712    1.483   .     S
C709   O728    1.265   .     S
C709   O735    1.312   .     S
C710   H711    0.929   .     S
C710   C712    1.342   .     S
C710   C718    1.415   .     S
C712   C713    1.364   .     S
C713   H714    0.930   .     S
C713   C715    1.416   .     S
C715   C716    1.436   .     S
C716   H717    0.930   .     S
C716   C718    1.392   .     S
C718   S739    1.757   .     S
O721   Cu743   1.958   .     S
O722   Cu742   1.952   .     S
O723   S738    1.453   .     S
O724   S738    1.451   .     S
O724   Cu741   2.305   .     S
O725   S738    1.465   .     S
O726   Cu740   1.966   .     S
O726   Cu742   1.945   .     S
O726   Cu743   2.008   .     S
O727   Cu740   1.973   .     S
O727   Cu743   2.007   .     S
O729   Cu742   1.981   .     S
O730   Cu60    1.911   1_556 S
O732   Cu926   1.917   .     S
O734   Cu741   1.927   .     S
O735   Cu741   1.953   .     S
O736   S739    1.452   .     S
O737   S739    1.423   .     S
S739   O744    1.376   .     S
Cu740  O918    1.917   .     S
C745   C746    1.373   .     S
C745   C752    1.410   .     S
C745   C754    1.478   .     S
C746   H747    0.929   .     S
C746   C748    1.408   .     S
C748   C749    1.420   .     S
C748   C755    1.512   .     S
C749   H750    0.930   .     S
C749   C751    1.380   .     S
C751   S800    1.799   .     S
C751   C752    1.352   .     S
C752   H753    0.930   .     S
C754   O783    1.243   .     S
C754   O784    1.290   .     S
C755   O794    1.253   .     S
C755   O795    1.207   .     S
C756   C777    1.528   .     S
C756   O792    1.214   .     S
C756   O793    1.234   .     S
C757   H758    0.929   .     S
C757   N782    1.263   .     S
C757   O791    1.236   .     S
C759   N782    1.433   .     S
C760   N782    1.369   .     S
C761   H762    0.931   .     S
C761   N781    1.350   .     S
C761   O796    1.304   .     S
C763   H764    0.961   .     S
C763   H765    0.958   .     S
C763   H766    0.961   .     S
C763   N781    1.449   .     S
C767   H768    0.959   .     S
C767   H769    0.961   .     S
C767   H770    0.959   .     S
C767   N781    1.471   .     S
C771   C774    1.483   .     S
C771   O790    1.265   .     S
C771   O797    1.312   .     S
C772   H773    0.929   .     S
C772   C774    1.342   .     S
C772   C780    1.415   .     S
C774   C775    1.364   .     S
C775   H776    0.930   .     S
C775   C777    1.416   .     S
C777   C778    1.436   .     S
C778   H779    0.930   .     S
C778   C780    1.392   .     S
C780   S801    1.757   .     S
O783   Cu805   1.958   .     S
O784   Cu804   1.952   .     S
O785   S800    1.453   .     S
O786   S800    1.451   .     S
O786   Cu803   2.305   .     S
O787   S800    1.465   .     S
O788   Cu802   1.966   .     S
O788   Cu804   1.945   .     S
O788   Cu805   2.008   .     S
O789   Cu802   1.973   .     S
O789   Cu805   2.007   .     S
O791   Cu804   1.981   .     S
O792   Cu308   1.911   1_556 S
O796   Cu803   1.927   .     S
O797   Cu803   1.953   .     S
O798   S801    1.452   .     S
O798   Cu929   2.708   .     S
O799   S801    1.423   .     S
O799   Cu928   2.270   .     S
S801   O806    1.376   .     S
Cu804  O923    2.270   .     S
Cu805  O922    2.708   .     S
C807   C808    1.373   1_556 S
C807   C814    1.410   .     S
C807   C816    1.478   .     S
C808   C807    1.373   1_554 S
C808   H809    0.929   .     S
C808   C810    1.408   .     S
C810   C811    1.420   .     S
C810   C817    1.512   .     S
C811   H812    0.930   .     S
C811   C813    1.380   .     S
C813   S862    1.799   .     S
C813   C814    1.352   1_554 S
C814   H815    0.930   .     S
C814   C813    1.352   1_556 S
C816   O845    1.243   .     S
C816   O846    1.290   .     S
C817   O856    1.253   .     S
C817   O857    1.207   .     S
C818   C839    1.528   .     S
C818   O854    1.214   .     S
C818   O855    1.234   .     S
C819   H820    0.929   .     S
C819   N844    1.263   .     S
C819   O853    1.236   .     S
C821   N844    1.433   .     S
C822   N844    1.369   .     S
C823   H824    0.931   .     S
C823   N843    1.350   .     S
C823   O858    1.304   .     S
C825   H826    0.961   .     S
C825   H827    0.958   .     S
C825   H828    0.961   .     S
C825   N843    1.449   .     S
C829   H830    0.959   .     S
C829   H831    0.961   .     S
C829   H832    0.959   1_554 S
C829   N843    1.471   .     S
H832   C829    0.959   1_556 S
C833   C836    1.483   .     S
C833   O852    1.265   .     S
C833   O859    1.312   .     S
C834   H835    0.929   .     S
C834   C836    1.342   .     S
C834   C842    1.415   .     S
C836   C837    1.364   .     S
C837   H838    0.930   .     S
C837   C839    1.416   .     S
C839   C840    1.436   .     S
C840   H841    0.930   .     S
C840   C842    1.392   .     S
C842   S863    1.757   .     S
O845   Cu867   1.958   1_545 S
O846   Cu866   1.952   .     S
O847   S862    1.453   1_556 S
O848   S862    1.451   .     S
O848   Cu865   2.305   .     S
O849   S862    1.465   .     S
O850   Cu864   1.966   1_545 S
O850   Cu866   1.945   .     S
O850   Cu867   2.008   1_545 S
O851   Cu864   1.973   .     S
O851   Cu867   2.007   .     S
O853   Cu866   1.981   .     S
O858   Cu865   1.927   .     S
O859   Cu865   1.953   .     S
O860   S863    1.452   .     S
O860   Cu991   2.708   1_545 S
O861   S863    1.423   .     S
O861   Cu990   2.270   .     S
S862   O847    1.453   1_554 S
S863   O868    1.376   .     S
Cu864  O850    1.966   1_565 S
Cu864  O483    1.939   1_565 S
Cu865  O361    1.917   1_554 S
Cu866  O985    2.270   .     S
Cu867  O845    1.958   1_565 S
Cu867  O984    2.708   1_565 S
Cu867  O850    2.008   1_565 S
C869   C870    1.373   1_556 S
C869   C876    1.410   .     S
C869   C878    1.478   .     S
C870   C869    1.373   1_554 S
C870   H871    0.929   .     S
C870   C872    1.408   .     S
C872   C873    1.420   .     S
C872   C879    1.512   .     S
C873   H874    0.930   .     S
C873   C875    1.380   .     S
C875   S924    1.799   .     S
C875   C876    1.352   1_554 S
C876   H877    0.930   .     S
C876   C875    1.352   1_556 S
C878   O907    1.243   .     S
C878   O908    1.290   .     S
C879   O918    1.253   .     S
C879   O919    1.207   .     S
C880   C901    1.528   .     S
C880   O916    1.214   .     S
C880   O917    1.234   .     S
C881   H882    0.929   .     S
C881   N906    1.263   .     S
C881   O915    1.236   .     S
C883   N906    1.433   .     S
C884   N906    1.369   .     S
C885   H886    0.931   .     S
C885   N905    1.350   .     S
C885   O920    1.304   .     S
C887   H888    0.961   .     S
C887   H889    0.958   .     S
C887   H890    0.961   .     S
C887   N905    1.449   .     S
C891   H892    0.959   .     S
C891   H893    0.961   .     S
C891   H894    0.959   1_554 S
C891   N905    1.471   .     S
H894   C891    0.959   1_556 S
C895   C898    1.483   .     S
C895   O914    1.265   .     S
C895   O921    1.312   .     S
C896   H897    0.929   .     S
C896   C898    1.342   .     S
C896   C904    1.415   .     S
C898   C899    1.364   .     S
C899   H900    0.930   .     S
C899   C901    1.416   .     S
C901   C902    1.436   .     S
C902   H903    0.930   .     S
C902   C904    1.392   .     S
C904   S925    1.757   .     S
O907   Cu929   1.958   .     S
O908   Cu928   1.952   .     S
O909   S924    1.453   1_556 S
O910   S924    1.451   .     S
O910   Cu927   2.305   1_455 S
O911   S924    1.465   .     S
O912   Cu926   1.966   .     S
O912   Cu928   1.945   .     S
O912   Cu929   2.008   .     S
O913   Cu926   1.973   .     S
O913   Cu929   2.007   .     S
O914   Cu247   1.987   1_655 S
O915   Cu928   1.981   .     S
O920   Cu927   1.927   .     S
O921   Cu927   1.953   .     S
O922   S925    1.452   .     S
O923   S925    1.423   .     S
S924   O909    1.453   1_554 S
S925   O930    1.376   .     S
Cu927  O910    2.305   1_655 S
Cu927  O423    1.917   1_554 S
C931   C932    1.373   .     S
C931   C938    1.410   .     S
C931   C940    1.478   .     S
C932   H933    0.929   .     S
C932   C934    1.408   .     S
C934   C935    1.420   .     S
C934   C941    1.512   .     S
C935   H936    0.930   .     S
C935   C937    1.380   .     S
C937   S986    1.799   .     S
C937   C938    1.352   .     S
C938   H939    0.930   .     S
C940   O969    1.243   .     S
C940   O970    1.290   .     S
C941   O980    1.253   .     S
C941   O981    1.207   .     S
C942   C963    1.528   .     S
C942   O978    1.214   .     S
C942   O979    1.234   .     S
C943   H944    0.929   .     S
C943   N968    1.263   .     S
C943   O977    1.236   .     S
C945   N968    1.433   .     S
C946   N968    1.369   .     S
C947   H948    0.931   .     S
C947   N967    1.350   .     S
C947   O982    1.304   .     S
C949   H950    0.961   .     S
C949   H951    0.958   .     S
C949   H952    0.961   .     S
C949   N967    1.449   .     S
C953   H954    0.959   .     S
C953   H955    0.961   .     S
C953   H956    0.959   .     S
C953   N967    1.471   .     S
C957   C960    1.483   .     S
C957   O976    1.265   .     S
C957   O983    1.312   .     S
C958   H959    0.929   .     S
C958   C960    1.342   .     S
C958   C966    1.415   .     S
C960   C961    1.364   .     S
C961   H962    0.930   .     S
C961   C963    1.416   .     S
C963   C964    1.436   .     S
C964   H965    0.930   .     S
C964   C966    1.392   .     S
C966   S987    1.757   .     S
O969   Cu991   1.958   1_545 S
O970   Cu990   1.952   .     S
O971   S986    1.453   .     S
O972   S986    1.451   .     S
O972   Cu989   2.305   1_455 S
O973   S986    1.465   .     S
O974   Cu988   1.966   1_545 S
O974   Cu990   1.945   .     S
O974   Cu991   2.008   1_545 S
O975   Cu988   1.973   .     S
O975   Cu991   2.007   .     S
O976   Cu185   1.987   1_655 S
O977   Cu990   1.981   .     S
O978   Cu494   1.911   1_556 S
O982   Cu989   1.927   .     S
O983   Cu989   1.953   .     S
O984   S987    1.452   .     S
O984   Cu867   2.708   1_545 S
O985   S987    1.423   .     S
S987   O992    1.376   .     S
Cu988  O974    1.966   1_565 S
Cu988  O359    1.939   1_565 S
Cu989  O972    2.305   1_655 S
Cu991  O969    1.958   1_565 S
Cu991  O860    2.708   1_565 S
Cu991  O974    2.008   1_565 S
