data_LAPYAG_FSR
_audit_creation_date              2024-06-11
_audit_creation_method            'Materials Studio'
_symmetry_space_group_name_H-M    'P1'
_symmetry_Int_Tables_number       1
_symmetry_cell_setting            triclinic
loop_
_symmetry_equiv_pos_as_xyz
  x,y,z
_cell_length_a                    18.9680
_cell_length_b                    18.4430
_cell_length_c                    19.8150
_cell_angle_alpha                 90.0000
_cell_angle_beta                  92.7700
_cell_angle_gamma                 90.0000
loop_
_atom_site_label
_atom_site_type_symbol
_atom_site_fract_x
_atom_site_fract_y
_atom_site_fract_z
_atom_site_U_iso_or_equiv
_atom_site_adp_type
_atom_site_occupancy
V1     V     0.18594   0.86882   0.37008   0.01473  Uani   1.00
V2     V     0.25087   0.68617   0.33134   0.01459  Uani   1.00
V3     V     0.33677   0.82425   0.34601   0.01473  Uani   1.00
V4     V     0.08543   0.70778   0.41962   0.01520  Uani   1.00
V5     V     0.08254   0.85610   0.48030   0.01494  Uani   1.00
V6     V     0.18192   0.57789   0.42145   0.01506  Uani   1.00
O7     O     0.42910   0.63526   0.30430   0.02013  Uani   1.00
O8     O     0.33569   0.50800   0.44676   0.01792  Uani   1.00
O9     O     0.00910   0.89880   0.46170   0.02637  Uani   1.00
O10    O     0.28560   1.03071   0.38797   0.01956  Uani   1.00
O11    O     0.49356   0.92093   0.47718   0.02020  Uani   1.00
O12    O     0.27250   0.96586   0.49407   0.01689  Uani   1.00
O13    O     0.39638   0.62114   0.42023   0.01497  Uani   1.00
O14    O     0.43640   0.74357   0.49667   0.01889  Uani   1.00
O15    O     0.38269   0.96521   0.43617   0.01560  Uani   1.00
O16    O     0.18010   1.04515   0.44822   0.02104  Uani   1.00
O17    O     0.27330   0.60280   0.38838   0.02019  Uani   1.00
O18    O     0.23876   0.79057   0.33130   0.01783  Uani   1.00
O19    O     0.47106   0.72154   0.38429   0.01608  Uani   1.00
O20    O     0.16090   0.66615   0.36938   0.01830  Uani   1.00
O21    O     0.41753   0.83821   0.41377   0.01578  Uani   1.00
O22    O     0.11250   0.80604   0.39984   0.01920  Uani   1.00
O23    O     0.36390   0.85360   0.27375   0.02288  Uani   1.00
O24    O     0.15410   0.91620   0.30691   0.02595  Uani   1.00
O25    O     0.14810   0.51050   0.37760   0.02257  Uani   1.00
O26    O     0.34738   0.71987   0.35188   0.01767  Uani   1.00
O27    O     0.01220   0.68950   0.37700   0.02791  Uani   1.00
O28    O     0.16050   0.91570   0.45432   0.01963  Uani   1.00
O29    O     0.24320   0.65780   0.25348   0.02612  Uani   1.00
O30    O     0.61450   0.89270   0.49680   0.03028  Uani   1.00
O31    O     0.28350   0.89984   0.38842   0.01981  Uani   1.00
O32    O     0.53714   0.80369   0.45145   0.01900  Uani   1.00
O33    O     0.41370   0.53940   0.22749   0.03217  Uani   1.00
H34    H     0.39180   0.50130   0.22270   0.04800  Uiso   1.00
O35    O     0.36120   0.53171   0.33390   0.02008  Uani   1.00
O36    O     0.38810   0.87683   0.52590   0.01939  Uani   1.00
O37    O     0.20720   1.13080   0.36810   0.03214  Uani   1.00
B38    B     0.46500   0.77590   0.43610   0.01754  Uani   1.00
B39    B     0.34180   0.56530   0.39860   0.01760  Uani   1.00
B40    B     0.19360   0.97930   0.48850   0.01727  Uani   1.00
B41    B     0.30770   0.96510   0.42650   0.01493  Uani   1.00
B42    B     0.40080   0.56920   0.28970   0.01857  Uani   1.00
B43    B     0.41150   0.67530   0.36560   0.01657  Uani   1.00
B44    B     0.22550   1.06770   0.40130   0.01903  Uani   1.00
B45    B     0.54550   0.87340   0.47450   0.02010  Uani   1.00
B46    B     0.42000   0.90150   0.46290   0.01547  Uani   1.00
H47    H     0.22700   1.13500   0.33300   0.04000  Uiso   1.00
H48    H     0.60800   0.93510   0.50600   0.08000  Uiso   1.00
H49    H     0.16900   0.70400   0.34700   0.22000  Uiso   1.00
H50    H     0.25600   0.75600   0.30900   0.29000  Uiso   1.00
H51    H     0.14300   0.78000   0.42200   0.50000  Uiso   1.00
H52    H     0.35600   0.88100   0.24000   0.13000  Uiso   1.00
H53    H     0.15200   0.50300   0.41980   0.19000  Uiso   1.00
V54    V     0.68594   0.36882   0.37008   0.01473  Uani   1.00
V55    V     0.75087   0.18617   0.33134   0.01459  Uani   1.00
V56    V     0.83677   0.32425   0.34601   0.01473  Uani   1.00
V57    V     0.58543   0.20778   0.41962   0.01520  Uani   1.00
V58    V     0.58254   0.35610   0.48030   0.01494  Uani   1.00
V59    V     0.68192   0.07789   0.42145   0.01506  Uani   1.00
O60    O     0.92910   0.13526   0.30430   0.02013  Uani   1.00
O61    O     0.83569   0.00800   0.44676   0.01792  Uani   1.00
O62    O     0.50910   0.39880   0.46170   0.02637  Uani   1.00
O63    O     0.78560   0.53071   0.38797   0.01956  Uani   1.00
O64    O     0.99356   0.42093   0.47718   0.02020  Uani   1.00
O65    O     0.77250   0.46586   0.49407   0.01689  Uani   1.00
O66    O     0.89638   0.12114   0.42023   0.01497  Uani   1.00
O67    O     0.93640   0.24357   0.49667   0.01889  Uani   1.00
O68    O     0.88269   0.46521   0.43617   0.01560  Uani   1.00
O69    O     0.68010   0.54515   0.44822   0.02104  Uani   1.00
O70    O     0.77330   0.10280   0.38838   0.02019  Uani   1.00
O71    O     0.73876   0.29057   0.33130   0.01783  Uani   1.00
O72    O     0.97106   0.22154   0.38429   0.01608  Uani   1.00
O73    O     0.66090   0.16615   0.36938   0.01830  Uani   1.00
O74    O     0.91753   0.33821   0.41377   0.01578  Uani   1.00
O75    O     0.61250   0.30604   0.39984   0.01920  Uani   1.00
O76    O     0.86390   0.35360   0.27375   0.02288  Uani   1.00
O77    O     0.65410   0.41620   0.30691   0.02595  Uani   1.00
O78    O     0.64810   0.01050   0.37760   0.02257  Uani   1.00
O79    O     0.84738   0.21987   0.35188   0.01767  Uani   1.00
O80    O     0.51220   0.18950   0.37700   0.02791  Uani   1.00
O81    O     0.66050   0.41570   0.45432   0.01963  Uani   1.00
O82    O     0.74320   0.15780   0.25348   0.02612  Uani   1.00
O83    O     1.11450   0.39270   0.49680   0.03028  Uani   1.00
O84    O     0.78350   0.39984   0.38842   0.01981  Uani   1.00
O85    O     1.03714   0.30369   0.45145   0.01900  Uani   1.00
O86    O     0.91370   0.03940   0.22749   0.03217  Uani   1.00
H87    H     0.89180   0.00130   0.22270   0.04800  Uiso   1.00
O88    O     0.86120   0.03171   0.33390   0.02008  Uani   1.00
O89    O     0.88810   0.37683   0.52590   0.01939  Uani   1.00
O90    O     0.70720   0.63080   0.36810   0.03214  Uani   1.00
B91    B     0.96500   0.27590   0.43610   0.01754  Uani   1.00
B92    B     0.84180   0.06530   0.39860   0.01760  Uani   1.00
B93    B     0.69360   0.47930   0.48850   0.01727  Uani   1.00
B94    B     0.80770   0.46510   0.42650   0.01493  Uani   1.00
B95    B     0.90080   0.06920   0.28970   0.01857  Uani   1.00
B96    B     0.91150   0.17530   0.36560   0.01657  Uani   1.00
B97    B     0.72550   0.56770   0.40130   0.01903  Uani   1.00
B98    B     1.04550   0.37340   0.47450   0.02010  Uani   1.00
B99    B     0.92000   0.40150   0.46290   0.01547  Uani   1.00
H100   H     0.72700   0.63500   0.33300   0.04000  Uiso   1.00
H101   H     1.10800   0.43510   0.50600   0.08000  Uiso   1.00
H102   H     0.66900   0.20400   0.34700   0.22000  Uiso   1.00
H103   H     0.75600   0.25600   0.30900   0.29000  Uiso   1.00
H104   H     0.64300   0.28000   0.42200   0.50000  Uiso   1.00
H105   H     0.85600   0.38100   0.24000   0.13000  Uiso   1.00
H106   H     0.65200   0.00300   0.41980   0.19000  Uiso   1.00
V107   V     0.81406   0.86882   0.12992   0.01473  Uani   1.00
V108   V     0.74913   0.68617   0.16866   0.01459  Uani   1.00
V109   V     0.66323   0.82425   0.15399   0.01473  Uani   1.00
V110   V     0.91457   0.70778   0.08038   0.01520  Uani   1.00
V111   V     0.91746   0.85610   0.01970   0.01494  Uani   1.00
V112   V     0.81808   0.57789   0.07855   0.01506  Uani   1.00
O113   O     0.57090   0.63526   0.19570   0.02013  Uani   1.00
O114   O     0.66431   0.50800   0.05324   0.01792  Uani   1.00
O115   O     0.99090   0.89880   0.03830   0.02637  Uani   1.00
O116   O     0.71440   1.03071   0.11203   0.01956  Uani   1.00
O117   O     0.50644   0.92093   0.02282   0.02020  Uani   1.00
O118   O     0.72750   0.96586   0.00593   0.01689  Uani   1.00
O119   O     0.60362   0.62114   0.07977   0.01497  Uani   1.00
O120   O     0.56360   0.74357   0.00333   0.01889  Uani   1.00
O121   O     0.61731   0.96521   0.06383   0.01560  Uani   1.00
O122   O     0.81990   1.04515   0.05178   0.02104  Uani   1.00
O123   O     0.72670   0.60280   0.11162   0.02019  Uani   1.00
O124   O     0.76124   0.79057   0.16870   0.01783  Uani   1.00
O125   O     0.52894   0.72154   0.11571   0.01608  Uani   1.00
O126   O     0.83910   0.66615   0.13062   0.01830  Uani   1.00
O127   O     0.58247   0.83821   0.08623   0.01578  Uani   1.00
O128   O     0.88750   0.80604   0.10016   0.01920  Uani   1.00
O129   O     0.63610   0.85360   0.22625   0.02288  Uani   1.00
O130   O     0.84590   0.91620   0.19309   0.02595  Uani   1.00
O131   O     0.85190   0.51050   0.12240   0.02257  Uani   1.00
O132   O     0.65262   0.71987   0.14812   0.01767  Uani   1.00
O133   O     0.98780   0.68950   0.12300   0.02791  Uani   1.00
O134   O     0.83950   0.91570   0.04568   0.01963  Uani   1.00
O135   O     0.75680   0.65780   0.24652   0.02612  Uani   1.00
O136   O     0.38550   0.89270   0.00320   0.03028  Uani   1.00
O137   O     0.71650   0.89984   0.11158   0.01981  Uani   1.00
O138   O     0.46286   0.80369   0.04855   0.01900  Uani   1.00
O139   O     0.58630   0.53940   0.27251   0.03217  Uani   1.00
H140   H     0.60820   0.50130   0.27730   0.04800  Uiso   1.00
O141   O     0.63880   0.53171   0.16610   0.02008  Uani   1.00
O142   O     0.61190   0.87683  -0.02590   0.01939  Uani   1.00
O143   O     0.79280   1.13080   0.13190   0.03214  Uani   1.00
B144   B     0.53500   0.77590   0.06390   0.01754  Uani   1.00
B145   B     0.65820   0.56530   0.10140   0.01760  Uani   1.00
B146   B     0.80640   0.97930   0.01150   0.01727  Uani   1.00
B147   B     0.69230   0.96510   0.07350   0.01493  Uani   1.00
B148   B     0.59920   0.56920   0.21030   0.01857  Uani   1.00
B149   B     0.58850   0.67530   0.13440   0.01657  Uani   1.00
B150   B     0.77450   1.06770   0.09870   0.01903  Uani   1.00
B151   B     0.45450   0.87340   0.02550   0.02010  Uani   1.00
B152   B     0.58000   0.90150   0.03710   0.01547  Uani   1.00
H153   H     0.77300   1.13500   0.16700   0.04000  Uiso   1.00
H154   H     0.39200   0.93510  -0.00600   0.08000  Uiso   1.00
H155   H     0.83100   0.70400   0.15300   0.22000  Uiso   1.00
H156   H     0.74400   0.75600   0.19100   0.29000  Uiso   1.00
H157   H     0.85700   0.78000   0.07800   0.50000  Uiso   1.00
H158   H     0.64400   0.88100   0.26000   0.13000  Uiso   1.00
H159   H     0.84800   0.50300   0.08020   0.19000  Uiso   1.00
V160   V     0.31406   0.36882   0.12992   0.01473  Uani   1.00
V161   V     0.24913   0.18617   0.16866   0.01459  Uani   1.00
V162   V     0.16323   0.32425   0.15399   0.01473  Uani   1.00
V163   V     0.41457   0.20778   0.08038   0.01520  Uani   1.00
V164   V     0.41746   0.35610   0.01970   0.01494  Uani   1.00
V165   V     0.31808   0.07789   0.07855   0.01506  Uani   1.00
O166   O     0.07090   0.13526   0.19570   0.02013  Uani   1.00
O167   O     0.16431   0.00800   0.05324   0.01792  Uani   1.00
O168   O     0.49090   0.39880   0.03830   0.02637  Uani   1.00
O169   O     0.21440   0.53071   0.11203   0.01956  Uani   1.00
O170   O     0.00644   0.42093   0.02282   0.02020  Uani   1.00
O171   O     0.22750   0.46586   0.00593   0.01689  Uani   1.00
O172   O     0.10362   0.12114   0.07977   0.01497  Uani   1.00
O173   O     0.06360   0.24357   0.00333   0.01889  Uani   1.00
O174   O     0.11731   0.46521   0.06383   0.01560  Uani   1.00
O175   O     0.31990   0.54515   0.05178   0.02104  Uani   1.00
O176   O     0.22670   0.10280   0.11162   0.02019  Uani   1.00
O177   O     0.26124   0.29057   0.16870   0.01783  Uani   1.00
O178   O     0.02894   0.22154   0.11571   0.01608  Uani   1.00
O179   O     0.33910   0.16615   0.13062   0.01830  Uani   1.00
O180   O     0.08247   0.33821   0.08623   0.01578  Uani   1.00
O181   O     0.38750   0.30604   0.10016   0.01920  Uani   1.00
O182   O     0.13610   0.35360   0.22625   0.02288  Uani   1.00
O183   O     0.34590   0.41620   0.19309   0.02595  Uani   1.00
O184   O     0.35190   0.01050   0.12240   0.02257  Uani   1.00
O185   O     0.15262   0.21987   0.14812   0.01767  Uani   1.00
O186   O     0.48780   0.18950   0.12300   0.02791  Uani   1.00
O187   O     0.33950   0.41570   0.04568   0.01963  Uani   1.00
O188   O     0.25680   0.15780   0.24652   0.02612  Uani   1.00
O189   O    -0.11450   0.39270   0.00320   0.03028  Uani   1.00
O190   O     0.21650   0.39984   0.11158   0.01981  Uani   1.00
O191   O    -0.03714   0.30369   0.04855   0.01900  Uani   1.00
O192   O     0.08630   0.03940   0.27251   0.03217  Uani   1.00
H193   H     0.10820   0.00130   0.27730   0.04800  Uiso   1.00
O194   O     0.13880   0.03171   0.16610   0.02008  Uani   1.00
O195   O     0.11190   0.37683  -0.02590   0.01939  Uani   1.00
O196   O     0.29280   0.63080   0.13190   0.03214  Uani   1.00
B197   B     0.03500   0.27590   0.06390   0.01754  Uani   1.00
B198   B     0.15820   0.06530   0.10140   0.01760  Uani   1.00
B199   B     0.30640   0.47930   0.01150   0.01727  Uani   1.00
B200   B     0.19230   0.46510   0.07350   0.01493  Uani   1.00
B201   B     0.09920   0.06920   0.21030   0.01857  Uani   1.00
B202   B     0.08850   0.17530   0.13440   0.01657  Uani   1.00
B203   B     0.27450   0.56770   0.09870   0.01903  Uani   1.00
B204   B    -0.04550   0.37340   0.02550   0.02010  Uani   1.00
B205   B     0.08000   0.40150   0.03710   0.01547  Uani   1.00
H206   H     0.27300   0.63500   0.16700   0.04000  Uiso   1.00
H207   H    -0.10800   0.43510  -0.00600   0.08000  Uiso   1.00
H208   H     0.33100   0.20400   0.15300   0.22000  Uiso   1.00
H209   H     0.24400   0.25600   0.19100   0.29000  Uiso   1.00
H210   H     0.35700   0.28000   0.07800   0.50000  Uiso   1.00
H211   H     0.14400   0.38100   0.26000   0.13000  Uiso   1.00
H212   H     0.34800   0.00300   0.08020   0.19000  Uiso   1.00
V213   V     0.81406   0.13118   0.62992   0.01473  Uani   1.00
V214   V     0.74913   0.31383   0.66866   0.01459  Uani   1.00
V215   V     0.66323   0.17575   0.65399   0.01473  Uani   1.00
V216   V     0.91457   0.29222   0.58038   0.01520  Uani   1.00
V217   V     0.91746   0.14390   0.51970   0.01494  Uani   1.00
V218   V     0.81808   0.42211   0.57855   0.01506  Uani   1.00
O219   O     0.57090   0.36474   0.69570   0.02013  Uani   1.00
O220   O     0.66431   0.49200   0.55324   0.01792  Uani   1.00
O221   O     0.99090   0.10120   0.53830   0.02637  Uani   1.00
O222   O     0.71440  -0.03071   0.61203   0.01956  Uani   1.00
O223   O     0.50644   0.07907   0.52282   0.02020  Uani   1.00
O224   O     0.72750   0.03414   0.50593   0.01689  Uani   1.00
O225   O     0.60362   0.37886   0.57977   0.01497  Uani   1.00
O226   O     0.56360   0.25643   0.50333   0.01889  Uani   1.00
O227   O     0.61731   0.03479   0.56383   0.01560  Uani   1.00
O228   O     0.81990  -0.04515   0.55178   0.02104  Uani   1.00
O229   O     0.72670   0.39720   0.61162   0.02019  Uani   1.00
O230   O     0.76124   0.20943   0.66870   0.01783  Uani   1.00
O231   O     0.52894   0.27846   0.61571   0.01608  Uani   1.00
O232   O     0.83910   0.33385   0.63062   0.01830  Uani   1.00
O233   O     0.58247   0.16179   0.58623   0.01578  Uani   1.00
O234   O     0.88750   0.19396   0.60016   0.01920  Uani   1.00
O235   O     0.63610   0.14640   0.72625   0.02288  Uani   1.00
O236   O     0.84590   0.08380   0.69309   0.02595  Uani   1.00
O237   O     0.85190   0.48950   0.62240   0.02257  Uani   1.00
O238   O     0.65262   0.28013   0.64812   0.01767  Uani   1.00
O239   O     0.98780   0.31050   0.62300   0.02791  Uani   1.00
O240   O     0.83950   0.08430   0.54568   0.01963  Uani   1.00
O241   O     0.75680   0.34220   0.74652   0.02612  Uani   1.00
O242   O     0.38550   0.10730   0.50320   0.03028  Uani   1.00
O243   O     0.71650   0.10016   0.61158   0.01981  Uani   1.00
O244   O     0.46286   0.19631   0.54855   0.01900  Uani   1.00
O245   O     0.58630   0.46060   0.77251   0.03217  Uani   1.00
H246   H     0.60820   0.49870   0.77730   0.04800  Uiso   1.00
O247   O     0.63880   0.46829   0.66610   0.02008  Uani   1.00
O248   O     0.61190   0.12317   0.47410   0.01939  Uani   1.00
O249   O     0.79280  -0.13080   0.63190   0.03214  Uani   1.00
B250   B     0.53500   0.22410   0.56390   0.01754  Uani   1.00
B251   B     0.65820   0.43470   0.60140   0.01760  Uani   1.00
B252   B     0.80640   0.02070   0.51150   0.01727  Uani   1.00
B253   B     0.69230   0.03490   0.57350   0.01493  Uani   1.00
B254   B     0.59920   0.43080   0.71030   0.01857  Uani   1.00
B255   B     0.58850   0.32470   0.63440   0.01657  Uani   1.00
B256   B     0.77450  -0.06770   0.59870   0.01903  Uani   1.00
B257   B     0.45450   0.12660   0.52550   0.02010  Uani   1.00
B258   B     0.58000   0.09850   0.53710   0.01547  Uani   1.00
H259   H     0.77300  -0.13500   0.66700   0.04000  Uiso   1.00
H260   H     0.39200   0.06490   0.49400   0.08000  Uiso   1.00
H261   H     0.83100   0.29600   0.65300   0.22000  Uiso   1.00
H262   H     0.74400   0.24400   0.69100   0.29000  Uiso   1.00
H263   H     0.85700   0.22000   0.57800   0.50000  Uiso   1.00
H264   H     0.64400   0.11900   0.76000   0.13000  Uiso   1.00
H265   H     0.84800   0.49700   0.58020   0.19000  Uiso   1.00
V266   V     0.31406   0.63118   0.62992   0.01473  Uani   1.00
V267   V     0.24913   0.81383   0.66866   0.01459  Uani   1.00
V268   V     0.16323   0.67575   0.65399   0.01473  Uani   1.00
V269   V     0.41457   0.79222   0.58038   0.01520  Uani   1.00
V270   V     0.41746   0.64390   0.51970   0.01494  Uani   1.00
V271   V     0.31808   0.92211   0.57855   0.01506  Uani   1.00
O272   O     0.07090   0.86474   0.69570   0.02013  Uani   1.00
O273   O     0.16431   0.99200   0.55324   0.01792  Uani   1.00
O274   O     0.49090   0.60120   0.53830   0.02637  Uani   1.00
O275   O     0.21440   0.46929   0.61203   0.01956  Uani   1.00
O276   O     0.00644   0.57907   0.52282   0.02020  Uani   1.00
O277   O     0.22750   0.53414   0.50593   0.01689  Uani   1.00
O278   O     0.10362   0.87886   0.57977   0.01497  Uani   1.00
O279   O     0.06360   0.75643   0.50333   0.01889  Uani   1.00
O280   O     0.11731   0.53479   0.56383   0.01560  Uani   1.00
O281   O     0.31990   0.45485   0.55178   0.02104  Uani   1.00
O282   O     0.22670   0.89720   0.61162   0.02019  Uani   1.00
O283   O     0.26124   0.70943   0.66870   0.01783  Uani   1.00
O284   O     0.02894   0.77846   0.61571   0.01608  Uani   1.00
O285   O     0.33910   0.83385   0.63062   0.01830  Uani   1.00
O286   O     0.08247   0.66179   0.58623   0.01578  Uani   1.00
O287   O     0.38750   0.69396   0.60016   0.01920  Uani   1.00
O288   O     0.13610   0.64640   0.72625   0.02288  Uani   1.00
O289   O     0.34590   0.58380   0.69309   0.02595  Uani   1.00
O290   O     0.35190   0.98950   0.62240   0.02257  Uani   1.00
O291   O     0.15262   0.78013   0.64812   0.01767  Uani   1.00
O292   O     0.48780   0.81050   0.62300   0.02791  Uani   1.00
O293   O     0.33950   0.58430   0.54568   0.01963  Uani   1.00
O294   O     0.25680   0.84220   0.74652   0.02612  Uani   1.00
O295   O    -0.11450   0.60730   0.50320   0.03028  Uani   1.00
O296   O     0.21650   0.60016   0.61158   0.01981  Uani   1.00
O297   O    -0.03714   0.69631   0.54855   0.01900  Uani   1.00
O298   O     0.08630   0.96060   0.77251   0.03217  Uani   1.00
H299   H     0.10820   0.99870   0.77730   0.04800  Uiso   1.00
O300   O     0.13880   0.96829   0.66610   0.02008  Uani   1.00
O301   O     0.11190   0.62317   0.47410   0.01939  Uani   1.00
O302   O     0.29280   0.36920   0.63190   0.03214  Uani   1.00
B303   B     0.03500   0.72410   0.56390   0.01754  Uani   1.00
B304   B     0.15820   0.93470   0.60140   0.01760  Uani   1.00
B305   B     0.30640   0.52070   0.51150   0.01727  Uani   1.00
B306   B     0.19230   0.53490   0.57350   0.01493  Uani   1.00
B307   B     0.09920   0.93080   0.71030   0.01857  Uani   1.00
B308   B     0.08850   0.82470   0.63440   0.01657  Uani   1.00
B309   B     0.27450   0.43230   0.59870   0.01903  Uani   1.00
B310   B    -0.04550   0.62660   0.52550   0.02010  Uani   1.00
B311   B     0.08000   0.59850   0.53710   0.01547  Uani   1.00
H312   H     0.27300   0.36500   0.66700   0.04000  Uiso   1.00
H313   H    -0.10800   0.56490   0.49400   0.08000  Uiso   1.00
H314   H     0.33100   0.79600   0.65300   0.22000  Uiso   1.00
H315   H     0.24400   0.74400   0.69100   0.29000  Uiso   1.00
H316   H     0.35700   0.72000   0.57800   0.50000  Uiso   1.00
H317   H     0.14400   0.61900   0.76000   0.13000  Uiso   1.00
H318   H     0.34800   0.99700   0.58020   0.19000  Uiso   1.00
V319   V     0.18594   0.13118  -0.12992   0.01473  Uani   1.00
V320   V     0.25087   0.31383  -0.16866   0.01459  Uani   1.00
V321   V     0.33677   0.17575  -0.15399   0.01473  Uani   1.00
V322   V     0.08543   0.29222  -0.08038   0.01520  Uani   1.00
V323   V     0.08254   0.14390  -0.01970   0.01494  Uani   1.00
V324   V     0.18192   0.42211  -0.07855   0.01506  Uani   1.00
O325   O     0.42910   0.36474  -0.19570   0.02013  Uani   1.00
O326   O     0.33569   0.49200  -0.05324   0.01792  Uani   1.00
O327   O     0.00910   0.10120  -0.03830   0.02637  Uani   1.00
O328   O     0.28560  -0.03071  -0.11203   0.01956  Uani   1.00
O329   O     0.49356   0.07907  -0.02282   0.02020  Uani   1.00
O330   O     0.27250   0.03414  -0.00593   0.01689  Uani   1.00
O331   O     0.39638   0.37886  -0.07977   0.01497  Uani   1.00
O332   O     0.43640   0.25643  -0.00333   0.01889  Uani   1.00
O333   O     0.38269   0.03479  -0.06383   0.01560  Uani   1.00
O334   O     0.18010  -0.04515  -0.05178   0.02104  Uani   1.00
O335   O     0.27330   0.39720  -0.11162   0.02019  Uani   1.00
O336   O     0.23876   0.20943  -0.16870   0.01783  Uani   1.00
O337   O     0.47106   0.27846  -0.11571   0.01608  Uani   1.00
O338   O     0.16090   0.33385  -0.13062   0.01830  Uani   1.00
O339   O     0.41753   0.16179  -0.08623   0.01578  Uani   1.00
O340   O     0.11250   0.19396  -0.10016   0.01920  Uani   1.00
O341   O     0.36390   0.14640  -0.22625   0.02288  Uani   1.00
O342   O     0.15410   0.08380  -0.19309   0.02595  Uani   1.00
O343   O     0.14810   0.48950  -0.12240   0.02257  Uani   1.00
O344   O     0.34738   0.28013  -0.14812   0.01767  Uani   1.00
O345   O     0.01220   0.31050  -0.12300   0.02791  Uani   1.00
O346   O     0.16050   0.08430  -0.04568   0.01963  Uani   1.00
O347   O     0.24320   0.34220  -0.24652   0.02612  Uani   1.00
O348   O     0.61450   0.10730  -0.00320   0.03028  Uani   1.00
O349   O     0.28350   0.10016  -0.11158   0.01981  Uani   1.00
O350   O     0.53714   0.19631  -0.04855   0.01900  Uani   1.00
O351   O     0.41370   0.46060  -0.27251   0.03217  Uani   1.00
H352   H     0.39180   0.49870  -0.27730   0.04800  Uiso   1.00
O353   O     0.36120   0.46829  -0.16610   0.02008  Uani   1.00
O354   O     0.38810   0.12317   0.02590   0.01939  Uani   1.00
O355   O     0.20720  -0.13080  -0.13190   0.03214  Uani   1.00
B356   B     0.46500   0.22410  -0.06390   0.01754  Uani   1.00
B357   B     0.34180   0.43470  -0.10140   0.01760  Uani   1.00
B358   B     0.19360   0.02070  -0.01150   0.01727  Uani   1.00
B359   B     0.30770   0.03490  -0.07350   0.01493  Uani   1.00
B360   B     0.40080   0.43080  -0.21030   0.01857  Uani   1.00
B361   B     0.41150   0.32470  -0.13440   0.01657  Uani   1.00
B362   B     0.22550  -0.06770  -0.09870   0.01903  Uani   1.00
B363   B     0.54550   0.12660  -0.02550   0.02010  Uani   1.00
B364   B     0.42000   0.09850  -0.03710   0.01547  Uani   1.00
H365   H     0.22700  -0.13500  -0.16700   0.04000  Uiso   1.00
H366   H     0.60800   0.06490   0.00600   0.08000  Uiso   1.00
H367   H     0.16900   0.29600  -0.15300   0.22000  Uiso   1.00
H368   H     0.25600   0.24400  -0.19100   0.29000  Uiso   1.00
H369   H     0.14300   0.22000  -0.07800   0.50000  Uiso   1.00
H370   H     0.35600   0.11900  -0.26000   0.13000  Uiso   1.00
H371   H     0.15200   0.49700  -0.08020   0.19000  Uiso   1.00
V372   V     0.68594   0.63118  -0.12992   0.01473  Uani   1.00
V373   V     0.75087   0.81383  -0.16866   0.01459  Uani   1.00
V374   V     0.83677   0.67575  -0.15399   0.01473  Uani   1.00
V375   V     0.58543   0.79222  -0.08038   0.01520  Uani   1.00
V376   V     0.58254   0.64390  -0.01970   0.01494  Uani   1.00
V377   V     0.68192   0.92211  -0.07855   0.01506  Uani   1.00
O378   O     0.92910   0.86474  -0.19570   0.02013  Uani   1.00
O379   O     0.83569   0.99200  -0.05324   0.01792  Uani   1.00
O380   O     0.50910   0.60120  -0.03830   0.02637  Uani   1.00
O381   O     0.78560   0.46929  -0.11203   0.01956  Uani   1.00
O382   O     0.99356   0.57907  -0.02282   0.02020  Uani   1.00
O383   O     0.77250   0.53414  -0.00593   0.01689  Uani   1.00
O384   O     0.89638   0.87886  -0.07977   0.01497  Uani   1.00
O385   O     0.93640   0.75643  -0.00333   0.01889  Uani   1.00
O386   O     0.88269   0.53479  -0.06383   0.01560  Uani   1.00
O387   O     0.68010   0.45485  -0.05178   0.02104  Uani   1.00
O388   O     0.77330   0.89720  -0.11162   0.02019  Uani   1.00
O389   O     0.73876   0.70943  -0.16870   0.01783  Uani   1.00
O390   O     0.97106   0.77846  -0.11571   0.01608  Uani   1.00
O391   O     0.66090   0.83385  -0.13062   0.01830  Uani   1.00
O392   O     0.91753   0.66179  -0.08623   0.01578  Uani   1.00
O393   O     0.61250   0.69396  -0.10016   0.01920  Uani   1.00
O394   O     0.86390   0.64640  -0.22625   0.02288  Uani   1.00
O395   O     0.65410   0.58380  -0.19309   0.02595  Uani   1.00
O396   O     0.64810   0.98950  -0.12240   0.02257  Uani   1.00
O397   O     0.84738   0.78013  -0.14812   0.01767  Uani   1.00
O398   O     0.51220   0.81050  -0.12300   0.02791  Uani   1.00
O399   O     0.66050   0.58430  -0.04568   0.01963  Uani   1.00
O400   O     0.74320   0.84220  -0.24652   0.02612  Uani   1.00
O401   O     1.11450   0.60730  -0.00320   0.03028  Uani   1.00
O402   O     0.78350   0.60016  -0.11158   0.01981  Uani   1.00
O403   O     1.03714   0.69631  -0.04855   0.01900  Uani   1.00
O404   O     0.91370   0.96060  -0.27251   0.03217  Uani   1.00
H405   H     0.89180   0.99870  -0.27730   0.04800  Uiso   1.00
O406   O     0.86120   0.96829  -0.16610   0.02008  Uani   1.00
O407   O     0.88810   0.62317   0.02590   0.01939  Uani   1.00
O408   O     0.70720   0.36920  -0.13190   0.03214  Uani   1.00
B409   B     0.96500   0.72410  -0.06390   0.01754  Uani   1.00
B410   B     0.84180   0.93470  -0.10140   0.01760  Uani   1.00
B411   B     0.69360   0.52070  -0.01150   0.01727  Uani   1.00
B412   B     0.80770   0.53490  -0.07350   0.01493  Uani   1.00
B413   B     0.90080   0.93080  -0.21030   0.01857  Uani   1.00
B414   B     0.91150   0.82470  -0.13440   0.01657  Uani   1.00
B415   B     0.72550   0.43230  -0.09870   0.01903  Uani   1.00
B416   B     1.04550   0.62660  -0.02550   0.02010  Uani   1.00
B417   B     0.92000   0.59850  -0.03710   0.01547  Uani   1.00
H418   H     0.72700   0.36500  -0.16700   0.04000  Uiso   1.00
H419   H     1.10800   0.56490   0.00600   0.08000  Uiso   1.00
H420   H     0.66900   0.79600  -0.15300   0.22000  Uiso   1.00
H421   H     0.75600   0.74400  -0.19100   0.29000  Uiso   1.00
H422   H     0.64300   0.72000  -0.07800   0.50000  Uiso   1.00
H423   H     0.85600   0.61900  -0.26000   0.13000  Uiso   1.00
H424   H     0.65200   0.99700  -0.08020   0.19000  Uiso   1.00
loop_
_atom_site_aniso_label
_atom_site_aniso_U_11
_atom_site_aniso_U_22
_atom_site_aniso_U_33
_atom_site_aniso_U_12
_atom_site_aniso_U_13
_atom_site_aniso_U_23
V1        0.01770   0.01190   0.01470   0.00010   0.00200   0.00140
V2        0.01790   0.01280   0.01320  -0.00090   0.00210  -0.00110
V3        0.01810   0.01270   0.01360  -0.00040   0.00300   0.00020
V4        0.01690   0.01350   0.01520  -0.00100   0.00090  -0.00120
V5        0.01690   0.01240   0.01560   0.00080   0.00150   0.00000
V6        0.01840   0.01250   0.01440  -0.00150   0.00190  -0.00160
O7        0.03000   0.01460   0.01630  -0.00110   0.00640  -0.00050
O8        0.02400   0.01050   0.01960   0.00190   0.00460   0.00010
O9        0.02300   0.02410   0.03200   0.00790   0.00120   0.00090
O10       0.02200   0.01940   0.01770   0.00260   0.00540   0.00330
O11       0.01700   0.01550   0.02800  -0.00350   0.00010  -0.00290
O12       0.01820   0.01430   0.01860  -0.00070   0.00520   0.00190
O13       0.01820   0.01200   0.01500  -0.00110   0.00390  -0.00080
O14       0.02700   0.01310   0.01710  -0.00120   0.00660  -0.00020
O15       0.01560   0.01310   0.01840  -0.00150   0.00380   0.00100
O16       0.02200   0.01970   0.02160   0.00550   0.00300   0.00420
O17       0.02000   0.01690   0.02360  -0.00180   0.00020   0.00590
O18       0.01590   0.01570   0.02190  -0.00020   0.00110  -0.00130
O19       0.01640   0.01360   0.01840  -0.00070   0.00240  -0.00170
O20       0.02000   0.01800   0.01710   0.00370   0.00290   0.00240
O21       0.01600   0.01190   0.01940   0.00190   0.00050  -0.00300
O22       0.02500   0.01630   0.01660  -0.00390   0.00400  -0.00250
O23       0.03200   0.01890   0.01850  -0.00100   0.00900   0.00550
O24       0.02900   0.02700   0.02170   0.00420  -0.00020   0.00570
O25       0.02700   0.01670   0.02400  -0.00710   0.00120  -0.00730
O26       0.01640   0.01570   0.02080  -0.00060  -0.00030   0.00060
O27       0.02200   0.02800   0.03300  -0.00370  -0.00630  -0.00320
O28       0.02300   0.01990   0.01630  -0.00360   0.00400  -0.00260
O29       0.03700   0.02600   0.01540  -0.00150   0.00160  -0.00300
O30       0.02300   0.01900   0.04800  -0.00150  -0.00710  -0.00930
O31       0.02200   0.01530   0.02220  -0.00440   0.00190  -0.00310
O32       0.01900   0.01460   0.02330  -0.00030  -0.00010  -0.00140
O33       0.04600   0.02800   0.02400  -0.01800   0.01700  -0.01250
O35       0.02700   0.01490   0.01880  -0.00820   0.00590  -0.00280
O36       0.02300   0.01670   0.01870   0.00710   0.00330   0.00150
O37       0.03900   0.02600   0.03300   0.01330   0.01800   0.01670
B38       0.02100   0.01100   0.02100   0.00100   0.00500   0.00200
B39       0.02100   0.01800   0.01400  -0.00100   0.00300  -0.00400
B40       0.02400   0.01100   0.01700  -0.00400   0.00300   0.00100
B41       0.01700   0.01300   0.01500   0.00100   0.00300   0.00000
B42       0.02200   0.01300   0.02100  -0.00100   0.00400  -0.00200
B43       0.01800   0.01400   0.01800   0.00100   0.00400   0.00100
B44       0.02400   0.02000   0.01300  -0.00200   0.00000   0.00200
B45       0.02300   0.01600   0.02100  -0.00600  -0.00200  -0.00100
B46       0.01800   0.01000   0.01900   0.00200   0.00700  -0.00200
V54       0.01770   0.01190   0.01470   0.00010   0.00200   0.00140
V55       0.01790   0.01280   0.01320  -0.00090   0.00210  -0.00110
V56       0.01810   0.01270   0.01360  -0.00040   0.00300   0.00020
V57       0.01690   0.01350   0.01520  -0.00100   0.00090  -0.00120
V58       0.01690   0.01240   0.01560   0.00080   0.00150   0.00000
V59       0.01840   0.01250   0.01440  -0.00150   0.00190  -0.00160
O60       0.03000   0.01460   0.01630  -0.00110   0.00640  -0.00050
O61       0.02400   0.01050   0.01960   0.00190   0.00460   0.00010
O62       0.02300   0.02410   0.03200   0.00790   0.00120   0.00090
O63       0.02200   0.01940   0.01770   0.00260   0.00540   0.00330
O64       0.01700   0.01550   0.02800  -0.00350   0.00010  -0.00290
O65       0.01820   0.01430   0.01860  -0.00070   0.00520   0.00190
O66       0.01820   0.01200   0.01500  -0.00110   0.00390  -0.00080
O67       0.02700   0.01310   0.01710  -0.00120   0.00660  -0.00020
O68       0.01560   0.01310   0.01840  -0.00150   0.00380   0.00100
O69       0.02200   0.01970   0.02160   0.00550   0.00300   0.00420
O70       0.02000   0.01690   0.02360  -0.00180   0.00020   0.00590
O71       0.01590   0.01570   0.02190  -0.00020   0.00110  -0.00130
O72       0.01640   0.01360   0.01840  -0.00070   0.00240  -0.00170
O73       0.02000   0.01800   0.01710   0.00370   0.00290   0.00240
O74       0.01600   0.01190   0.01940   0.00190   0.00050  -0.00300
O75       0.02500   0.01630   0.01660  -0.00390   0.00400  -0.00250
O76       0.03200   0.01890   0.01850  -0.00100   0.00900   0.00550
O77       0.02900   0.02700   0.02170   0.00420  -0.00020   0.00570
O78       0.02700   0.01670   0.02400  -0.00710   0.00120  -0.00730
O79       0.01640   0.01570   0.02080  -0.00060  -0.00030   0.00060
O80       0.02200   0.02800   0.03300  -0.00370  -0.00630  -0.00320
O81       0.02300   0.01990   0.01630  -0.00360   0.00400  -0.00260
O82       0.03700   0.02600   0.01540  -0.00150   0.00160  -0.00300
O83       0.02300   0.01900   0.04800  -0.00150  -0.00710  -0.00930
O84       0.02200   0.01530   0.02220  -0.00440   0.00190  -0.00310
O85       0.01900   0.01460   0.02330  -0.00030  -0.00010  -0.00140
O86       0.04600   0.02800   0.02400  -0.01800   0.01700  -0.01250
O88       0.02700   0.01490   0.01880  -0.00820   0.00590  -0.00280
O89       0.02300   0.01670   0.01870   0.00710   0.00330   0.00150
O90       0.03900   0.02600   0.03300   0.01330   0.01800   0.01670
B91       0.02100   0.01100   0.02100   0.00100   0.00500   0.00200
B92       0.02100   0.01800   0.01400  -0.00100   0.00300  -0.00400
B93       0.02400   0.01100   0.01700  -0.00400   0.00300   0.00100
B94       0.01700   0.01300   0.01500   0.00100   0.00300   0.00000
B95       0.02200   0.01300   0.02100  -0.00100   0.00400  -0.00200
B96       0.01800   0.01400   0.01800   0.00100   0.00400   0.00100
B97       0.02400   0.02000   0.01300  -0.00200   0.00000   0.00200
B98       0.02300   0.01600   0.02100  -0.00600  -0.00200  -0.00100
B99       0.01800   0.01000   0.01900   0.00200   0.00700  -0.00200
V107      0.01770   0.01190   0.01470  -0.00010   0.00200  -0.00140
V108      0.01790   0.01280   0.01320   0.00090   0.00210   0.00110
V109      0.01810   0.01270   0.01360   0.00040   0.00300  -0.00020
V110      0.01690   0.01350   0.01520   0.00100   0.00090   0.00120
V111      0.01690   0.01240   0.01560  -0.00080   0.00150  -0.00000
V112      0.01840   0.01250   0.01440   0.00150   0.00190   0.00160
O113      0.03000   0.01460   0.01630   0.00110   0.00640   0.00050
O114      0.02400   0.01050   0.01960  -0.00190   0.00460  -0.00010
O115      0.02300   0.02410   0.03200  -0.00790   0.00120  -0.00090
O116      0.02200   0.01940   0.01770  -0.00260   0.00540  -0.00330
O117      0.01700   0.01550   0.02800   0.00350   0.00010   0.00290
O118      0.01820   0.01430   0.01860   0.00070   0.00520  -0.00190
O119      0.01820   0.01200   0.01500   0.00110   0.00390   0.00080
O120      0.02700   0.01310   0.01710   0.00120   0.00660   0.00020
O121      0.01560   0.01310   0.01840   0.00150   0.00380  -0.00100
O122      0.02200   0.01970   0.02160  -0.00550   0.00300  -0.00420
O123      0.02000   0.01690   0.02360   0.00180   0.00020  -0.00590
O124      0.01590   0.01570   0.02190   0.00020   0.00110   0.00130
O125      0.01640   0.01360   0.01840   0.00070   0.00240   0.00170
O126      0.02000   0.01800   0.01710  -0.00370   0.00290  -0.00240
O127      0.01600   0.01190   0.01940  -0.00190   0.00050   0.00300
O128      0.02500   0.01630   0.01660   0.00390   0.00400   0.00250
O129      0.03200   0.01890   0.01850   0.00100   0.00900  -0.00550
O130      0.02900   0.02700   0.02170  -0.00420  -0.00020  -0.00570
O131      0.02700   0.01670   0.02400   0.00710   0.00120   0.00730
O132      0.01640   0.01570   0.02080   0.00060  -0.00030  -0.00060
O133      0.02200   0.02800   0.03300   0.00370  -0.00630   0.00320
O134      0.02300   0.01990   0.01630   0.00360   0.00400   0.00260
O135      0.03700   0.02600   0.01540   0.00150   0.00160   0.00300
O136      0.02300   0.01900   0.04800   0.00150  -0.00710   0.00930
O137      0.02200   0.01530   0.02220   0.00440   0.00190   0.00310
O138      0.01900   0.01460   0.02330   0.00030  -0.00010   0.00140
O139      0.04600   0.02800   0.02400   0.01800   0.01700   0.01250
O141      0.02700   0.01490   0.01880   0.00820   0.00590   0.00280
O142      0.02300   0.01670   0.01870  -0.00710   0.00330  -0.00150
O143      0.03900   0.02600   0.03300  -0.01330   0.01800  -0.01670
B144      0.02100   0.01100   0.02100  -0.00100   0.00500  -0.00200
B145      0.02100   0.01800   0.01400   0.00100   0.00300   0.00400
B146      0.02400   0.01100   0.01700   0.00400   0.00300  -0.00100
B147      0.01700   0.01300   0.01500  -0.00100   0.00300  -0.00000
B148      0.02200   0.01300   0.02100   0.00100   0.00400   0.00200
B149      0.01800   0.01400   0.01800  -0.00100   0.00400  -0.00100
B150      0.02400   0.02000   0.01300   0.00200   0.00000  -0.00200
B151      0.02300   0.01600   0.02100   0.00600  -0.00200   0.00100
B152      0.01800   0.01000   0.01900  -0.00200   0.00700   0.00200
V160      0.01770   0.01190   0.01470  -0.00010   0.00200  -0.00140
V161      0.01790   0.01280   0.01320   0.00090   0.00210   0.00110
V162      0.01810   0.01270   0.01360   0.00040   0.00300  -0.00020
V163      0.01690   0.01350   0.01520   0.00100   0.00090   0.00120
V164      0.01690   0.01240   0.01560  -0.00080   0.00150  -0.00000
V165      0.01840   0.01250   0.01440   0.00150   0.00190   0.00160
O166      0.03000   0.01460   0.01630   0.00110   0.00640   0.00050
O167      0.02400   0.01050   0.01960  -0.00190   0.00460  -0.00010
O168      0.02300   0.02410   0.03200  -0.00790   0.00120  -0.00090
O169      0.02200   0.01940   0.01770  -0.00260   0.00540  -0.00330
O170      0.01700   0.01550   0.02800   0.00350   0.00010   0.00290
O171      0.01820   0.01430   0.01860   0.00070   0.00520  -0.00190
O172      0.01820   0.01200   0.01500   0.00110   0.00390   0.00080
O173      0.02700   0.01310   0.01710   0.00120   0.00660   0.00020
O174      0.01560   0.01310   0.01840   0.00150   0.00380  -0.00100
O175      0.02200   0.01970   0.02160  -0.00550   0.00300  -0.00420
O176      0.02000   0.01690   0.02360   0.00180   0.00020  -0.00590
O177      0.01590   0.01570   0.02190   0.00020   0.00110   0.00130
O178      0.01640   0.01360   0.01840   0.00070   0.00240   0.00170
O179      0.02000   0.01800   0.01710  -0.00370   0.00290  -0.00240
O180      0.01600   0.01190   0.01940  -0.00190   0.00050   0.00300
O181      0.02500   0.01630   0.01660   0.00390   0.00400   0.00250
O182      0.03200   0.01890   0.01850   0.00100   0.00900  -0.00550
O183      0.02900   0.02700   0.02170  -0.00420  -0.00020  -0.00570
O184      0.02700   0.01670   0.02400   0.00710   0.00120   0.00730
O185      0.01640   0.01570   0.02080   0.00060  -0.00030  -0.00060
O186      0.02200   0.02800   0.03300   0.00370  -0.00630   0.00320
O187      0.02300   0.01990   0.01630   0.00360   0.00400   0.00260
O188      0.03700   0.02600   0.01540   0.00150   0.00160   0.00300
O189      0.02300   0.01900   0.04800   0.00150  -0.00710   0.00930
O190      0.02200   0.01530   0.02220   0.00440   0.00190   0.00310
O191      0.01900   0.01460   0.02330   0.00030  -0.00010   0.00140
O192      0.04600   0.02800   0.02400   0.01800   0.01700   0.01250
O194      0.02700   0.01490   0.01880   0.00820   0.00590   0.00280
O195      0.02300   0.01670   0.01870  -0.00710   0.00330  -0.00150
O196      0.03900   0.02600   0.03300  -0.01330   0.01800  -0.01670
B197      0.02100   0.01100   0.02100  -0.00100   0.00500  -0.00200
B198      0.02100   0.01800   0.01400   0.00100   0.00300   0.00400
B199      0.02400   0.01100   0.01700   0.00400   0.00300  -0.00100
B200      0.01700   0.01300   0.01500  -0.00100   0.00300  -0.00000
B201      0.02200   0.01300   0.02100   0.00100   0.00400   0.00200
B202      0.01800   0.01400   0.01800  -0.00100   0.00400  -0.00100
B203      0.02400   0.02000   0.01300   0.00200   0.00000  -0.00200
B204      0.02300   0.01600   0.02100   0.00600  -0.00200   0.00100
B205      0.01800   0.01000   0.01900  -0.00200   0.00700   0.00200
V213      0.01770   0.01190   0.01470   0.00010   0.00200   0.00140
V214      0.01790   0.01280   0.01320  -0.00090   0.00210  -0.00110
V215      0.01810   0.01270   0.01360  -0.00040   0.00300   0.00020
V216      0.01690   0.01350   0.01520  -0.00100   0.00090  -0.00120
V217      0.01690   0.01240   0.01560   0.00080   0.00150   0.00000
V218      0.01840   0.01250   0.01440  -0.00150   0.00190  -0.00160
O219      0.03000   0.01460   0.01630  -0.00110   0.00640  -0.00050
O220      0.02400   0.01050   0.01960   0.00190   0.00460   0.00010
O221      0.02300   0.02410   0.03200   0.00790   0.00120   0.00090
O222      0.02200   0.01940   0.01770   0.00260   0.00540   0.00330
O223      0.01700   0.01550   0.02800  -0.00350   0.00010  -0.00290
O224      0.01820   0.01430   0.01860  -0.00070   0.00520   0.00190
O225      0.01820   0.01200   0.01500  -0.00110   0.00390  -0.00080
O226      0.02700   0.01310   0.01710  -0.00120   0.00660  -0.00020
O227      0.01560   0.01310   0.01840  -0.00150   0.00380   0.00100
O228      0.02200   0.01970   0.02160   0.00550   0.00300   0.00420
O229      0.02000   0.01690   0.02360  -0.00180   0.00020   0.00590
O230      0.01590   0.01570   0.02190  -0.00020   0.00110  -0.00130
O231      0.01640   0.01360   0.01840  -0.00070   0.00240  -0.00170
O232      0.02000   0.01800   0.01710   0.00370   0.00290   0.00240
O233      0.01600   0.01190   0.01940   0.00190   0.00050  -0.00300
O234      0.02500   0.01630   0.01660  -0.00390   0.00400  -0.00250
O235      0.03200   0.01890   0.01850  -0.00100   0.00900   0.00550
O236      0.02900   0.02700   0.02170   0.00420  -0.00020   0.00570
O237      0.02700   0.01670   0.02400  -0.00710   0.00120  -0.00730
O238      0.01640   0.01570   0.02080  -0.00060  -0.00030   0.00060
O239      0.02200   0.02800   0.03300  -0.00370  -0.00630  -0.00320
O240      0.02300   0.01990   0.01630  -0.00360   0.00400  -0.00260
O241      0.03700   0.02600   0.01540  -0.00150   0.00160  -0.00300
O242      0.02300   0.01900   0.04800  -0.00150  -0.00710  -0.00930
O243      0.02200   0.01530   0.02220  -0.00440   0.00190  -0.00310
O244      0.01900   0.01460   0.02330  -0.00030  -0.00010  -0.00140
O245      0.04600   0.02800   0.02400  -0.01800   0.01700  -0.01250
O247      0.02700   0.01490   0.01880  -0.00820   0.00590  -0.00280
O248      0.02300   0.01670   0.01870   0.00710   0.00330   0.00150
O249      0.03900   0.02600   0.03300   0.01330   0.01800   0.01670
B250      0.02100   0.01100   0.02100   0.00100   0.00500   0.00200
B251      0.02100   0.01800   0.01400  -0.00100   0.00300  -0.00400
B252      0.02400   0.01100   0.01700  -0.00400   0.00300   0.00100
B253      0.01700   0.01300   0.01500   0.00100   0.00300   0.00000
B254      0.02200   0.01300   0.02100  -0.00100   0.00400  -0.00200
B255      0.01800   0.01400   0.01800   0.00100   0.00400   0.00100
B256      0.02400   0.02000   0.01300  -0.00200   0.00000   0.00200
B257      0.02300   0.01600   0.02100  -0.00600  -0.00200  -0.00100
B258      0.01800   0.01000   0.01900   0.00200   0.00700  -0.00200
V266      0.01770   0.01190   0.01470   0.00010   0.00200   0.00140
V267      0.01790   0.01280   0.01320  -0.00090   0.00210  -0.00110
V268      0.01810   0.01270   0.01360  -0.00040   0.00300   0.00020
V269      0.01690   0.01350   0.01520  -0.00100   0.00090  -0.00120
V270      0.01690   0.01240   0.01560   0.00080   0.00150   0.00000
V271      0.01840   0.01250   0.01440  -0.00150   0.00190  -0.00160
O272      0.03000   0.01460   0.01630  -0.00110   0.00640  -0.00050
O273      0.02400   0.01050   0.01960   0.00190   0.00460   0.00010
O274      0.02300   0.02410   0.03200   0.00790   0.00120   0.00090
O275      0.02200   0.01940   0.01770   0.00260   0.00540   0.00330
O276      0.01700   0.01550   0.02800  -0.00350   0.00010  -0.00290
O277      0.01820   0.01430   0.01860  -0.00070   0.00520   0.00190
O278      0.01820   0.01200   0.01500  -0.00110   0.00390  -0.00080
O279      0.02700   0.01310   0.01710  -0.00120   0.00660  -0.00020
O280      0.01560   0.01310   0.01840  -0.00150   0.00380   0.00100
O281      0.02200   0.01970   0.02160   0.00550   0.00300   0.00420
O282      0.02000   0.01690   0.02360  -0.00180   0.00020   0.00590
O283      0.01590   0.01570   0.02190  -0.00020   0.00110  -0.00130
O284      0.01640   0.01360   0.01840  -0.00070   0.00240  -0.00170
O285      0.02000   0.01800   0.01710   0.00370   0.00290   0.00240
O286      0.01600   0.01190   0.01940   0.00190   0.00050  -0.00300
O287      0.02500   0.01630   0.01660  -0.00390   0.00400  -0.00250
O288      0.03200   0.01890   0.01850  -0.00100   0.00900   0.00550
O289      0.02900   0.02700   0.02170   0.00420  -0.00020   0.00570
O290      0.02700   0.01670   0.02400  -0.00710   0.00120  -0.00730
O291      0.01640   0.01570   0.02080  -0.00060  -0.00030   0.00060
O292      0.02200   0.02800   0.03300  -0.00370  -0.00630  -0.00320
O293      0.02300   0.01990   0.01630  -0.00360   0.00400  -0.00260
O294      0.03700   0.02600   0.01540  -0.00150   0.00160  -0.00300
O295      0.02300   0.01900   0.04800  -0.00150  -0.00710  -0.00930
O296      0.02200   0.01530   0.02220  -0.00440   0.00190  -0.00310
O297      0.01900   0.01460   0.02330  -0.00030  -0.00010  -0.00140
O298      0.04600   0.02800   0.02400  -0.01800   0.01700  -0.01250
O300      0.02700   0.01490   0.01880  -0.00820   0.00590  -0.00280
O301      0.02300   0.01670   0.01870   0.00710   0.00330   0.00150
O302      0.03900   0.02600   0.03300   0.01330   0.01800   0.01670
B303      0.02100   0.01100   0.02100   0.00100   0.00500   0.00200
B304      0.02100   0.01800   0.01400  -0.00100   0.00300  -0.00400
B305      0.02400   0.01100   0.01700  -0.00400   0.00300   0.00100
B306      0.01700   0.01300   0.01500   0.00100   0.00300   0.00000
B307      0.02200   0.01300   0.02100  -0.00100   0.00400  -0.00200
B308      0.01800   0.01400   0.01800   0.00100   0.00400   0.00100
B309      0.02400   0.02000   0.01300  -0.00200   0.00000   0.00200
B310      0.02300   0.01600   0.02100  -0.00600  -0.00200  -0.00100
B311      0.01800   0.01000   0.01900   0.00200   0.00700  -0.00200
V319      0.01770   0.01190   0.01470  -0.00010   0.00200  -0.00140
V320      0.01790   0.01280   0.01320   0.00090   0.00210   0.00110
V321      0.01810   0.01270   0.01360   0.00040   0.00300  -0.00020
V322      0.01690   0.01350   0.01520   0.00100   0.00090   0.00120
V323      0.01690   0.01240   0.01560  -0.00080   0.00150  -0.00000
V324      0.01840   0.01250   0.01440   0.00150   0.00190   0.00160
O325      0.03000   0.01460   0.01630   0.00110   0.00640   0.00050
O326      0.02400   0.01050   0.01960  -0.00190   0.00460  -0.00010
O327      0.02300   0.02410   0.03200  -0.00790   0.00120  -0.00090
O328      0.02200   0.01940   0.01770  -0.00260   0.00540  -0.00330
O329      0.01700   0.01550   0.02800   0.00350   0.00010   0.00290
O330      0.01820   0.01430   0.01860   0.00070   0.00520  -0.00190
O331      0.01820   0.01200   0.01500   0.00110   0.00390   0.00080
O332      0.02700   0.01310   0.01710   0.00120   0.00660   0.00020
O333      0.01560   0.01310   0.01840   0.00150   0.00380  -0.00100
O334      0.02200   0.01970   0.02160  -0.00550   0.00300  -0.00420
O335      0.02000   0.01690   0.02360   0.00180   0.00020  -0.00590
O336      0.01590   0.01570   0.02190   0.00020   0.00110   0.00130
O337      0.01640   0.01360   0.01840   0.00070   0.00240   0.00170
O338      0.02000   0.01800   0.01710  -0.00370   0.00290  -0.00240
O339      0.01600   0.01190   0.01940  -0.00190   0.00050   0.00300
O340      0.02500   0.01630   0.01660   0.00390   0.00400   0.00250
O341      0.03200   0.01890   0.01850   0.00100   0.00900  -0.00550
O342      0.02900   0.02700   0.02170  -0.00420  -0.00020  -0.00570
O343      0.02700   0.01670   0.02400   0.00710   0.00120   0.00730
O344      0.01640   0.01570   0.02080   0.00060  -0.00030  -0.00060
O345      0.02200   0.02800   0.03300   0.00370  -0.00630   0.00320
O346      0.02300   0.01990   0.01630   0.00360   0.00400   0.00260
O347      0.03700   0.02600   0.01540   0.00150   0.00160   0.00300
O348      0.02300   0.01900   0.04800   0.00150  -0.00710   0.00930
O349      0.02200   0.01530   0.02220   0.00440   0.00190   0.00310
O350      0.01900   0.01460   0.02330   0.00030  -0.00010   0.00140
O351      0.04600   0.02800   0.02400   0.01800   0.01700   0.01250
O353      0.02700   0.01490   0.01880   0.00820   0.00590   0.00280
O354      0.02300   0.01670   0.01870  -0.00710   0.00330  -0.00150
O355      0.03900   0.02600   0.03300  -0.01330   0.01800  -0.01670
B356      0.02100   0.01100   0.02100  -0.00100   0.00500  -0.00200
B357      0.02100   0.01800   0.01400   0.00100   0.00300   0.00400
B358      0.02400   0.01100   0.01700   0.00400   0.00300  -0.00100
B359      0.01700   0.01300   0.01500  -0.00100   0.00300  -0.00000
B360      0.02200   0.01300   0.02100   0.00100   0.00400   0.00200
B361      0.01800   0.01400   0.01800  -0.00100   0.00400  -0.00100
B362      0.02400   0.02000   0.01300   0.00200   0.00000  -0.00200
B363      0.02300   0.01600   0.02100   0.00600  -0.00200   0.00100
B364      0.01800   0.01000   0.01900  -0.00200   0.00700   0.00200
V372      0.01770   0.01190   0.01470  -0.00010   0.00200  -0.00140
V373      0.01790   0.01280   0.01320   0.00090   0.00210   0.00110
V374      0.01810   0.01270   0.01360   0.00040   0.00300  -0.00020
V375      0.01690   0.01350   0.01520   0.00100   0.00090   0.00120
V376      0.01690   0.01240   0.01560  -0.00080   0.00150  -0.00000
V377      0.01840   0.01250   0.01440   0.00150   0.00190   0.00160
O378      0.03000   0.01460   0.01630   0.00110   0.00640   0.00050
O379      0.02400   0.01050   0.01960  -0.00190   0.00460  -0.00010
O380      0.02300   0.02410   0.03200  -0.00790   0.00120  -0.00090
O381      0.02200   0.01940   0.01770  -0.00260   0.00540  -0.00330
O382      0.01700   0.01550   0.02800   0.00350   0.00010   0.00290
O383      0.01820   0.01430   0.01860   0.00070   0.00520  -0.00190
O384      0.01820   0.01200   0.01500   0.00110   0.00390   0.00080
O385      0.02700   0.01310   0.01710   0.00120   0.00660   0.00020
O386      0.01560   0.01310   0.01840   0.00150   0.00380  -0.00100
O387      0.02200   0.01970   0.02160  -0.00550   0.00300  -0.00420
O388      0.02000   0.01690   0.02360   0.00180   0.00020  -0.00590
O389      0.01590   0.01570   0.02190   0.00020   0.00110   0.00130
O390      0.01640   0.01360   0.01840   0.00070   0.00240   0.00170
O391      0.02000   0.01800   0.01710  -0.00370   0.00290  -0.00240
O392      0.01600   0.01190   0.01940  -0.00190   0.00050   0.00300
O393      0.02500   0.01630   0.01660   0.00390   0.00400   0.00250
O394      0.03200   0.01890   0.01850   0.00100   0.00900  -0.00550
O395      0.02900   0.02700   0.02170  -0.00420  -0.00020  -0.00570
O396      0.02700   0.01670   0.02400   0.00710   0.00120   0.00730
O397      0.01640   0.01570   0.02080   0.00060  -0.00030  -0.00060
O398      0.02200   0.02800   0.03300   0.00370  -0.00630   0.00320
O399      0.02300   0.01990   0.01630   0.00360   0.00400   0.00260
O400      0.03700   0.02600   0.01540   0.00150   0.00160   0.00300
O401      0.02300   0.01900   0.04800   0.00150  -0.00710   0.00930
O402      0.02200   0.01530   0.02220   0.00440   0.00190   0.00310
O403      0.01900   0.01460   0.02330   0.00030  -0.00010   0.00140
O404      0.04600   0.02800   0.02400   0.01800   0.01700   0.01250
O406      0.02700   0.01490   0.01880   0.00820   0.00590   0.00280
O407      0.02300   0.01670   0.01870  -0.00710   0.00330  -0.00150
O408      0.03900   0.02600   0.03300  -0.01330   0.01800  -0.01670
B409      0.02100   0.01100   0.02100  -0.00100   0.00500  -0.00200
B410      0.02100   0.01800   0.01400   0.00100   0.00300   0.00400
B411      0.02400   0.01100   0.01700   0.00400   0.00300  -0.00100
B412      0.01700   0.01300   0.01500  -0.00100   0.00300  -0.00000
B413      0.02200   0.01300   0.02100   0.00100   0.00400   0.00200
B414      0.01800   0.01400   0.01800  -0.00100   0.00400  -0.00100
B415      0.02400   0.02000   0.01300   0.00200   0.00000  -0.00200
B416      0.02300   0.01600   0.02100   0.00600  -0.00200   0.00100
B417      0.01800   0.01000   0.01900  -0.00200   0.00700   0.00200
loop_
_geom_bond_atom_site_label_1
_geom_bond_atom_site_label_2
_geom_bond_distance
_geom_bond_site_symmetry_2
_ccdc_geom_bond_type
V1     O18     1.937   .     S
V1     O22     1.926   .     S
V1     O24     1.619   .     S
V1     O28     1.961   .     S
V1     O31     1.954   .     S
V2     O17     1.943   .     S
V2     O18     1.939   .     S
V2     O20     1.934   .     S
V2     O26     1.957   .     S
V2     O29     1.629   .     S
V3     O18     1.968   .     S
V3     O21     2.004   .     S
V3     O23     1.637   .     S
V3     O26     1.938   .     S
V3     O31     1.937   .     S
V4     O20     1.941   .     S
V4     O27     1.626   .     S
V4     O279    1.948   .     S
V4     O301    1.949   .     S
V4     O22     1.929   .     S
V5     O9      1.627   .     S
V5     O278    2.036   .     S
V5     O22     1.951   .     S
V5     O28     1.932   .     S
V5     O279    1.932   .     S
V6     O17     1.938   .     S
V6     O25     1.630   .     S
V6     O277    2.015   .     S
V6     O20     1.958   .     S
V6     O301    1.919   .     S
O7     B42     1.357   .     S
O7     B43     1.474   .     S
O8     B39     1.432   .     S
O8     B305    1.442   .     S
O10    B41     1.481   .     S
O10    B44     1.365   .     S
O11    B45     1.322   .     S
O11    B46     1.455   .     S
O12    B40     1.516   .     S
O12    B41     1.525   .     S
O12    V271    2.015   .     S
O13    B39     1.508   .     S
O13    V270    2.036   .     S
O13    B43     1.511   .     S
O14    B38     1.467   .     S
O14    V269    1.948   .     S
O14    V270    1.932   .     S
O15    B41     1.426   .     S
O15    B46     1.458   .     S
O16    B40     1.469   .     S
O16    B44     1.362   .     S
O17    B39     1.477   .     S
O18    H50     0.850   .     S
O19    B38     1.443   .     S
O19    B43     1.449   .     S
O20    H49     0.845   .     S
O21    B38     1.513   .     S
O21    B46     1.519   .     S
O22    H51     0.856   .     S
O23    H52     0.846   .     S
O25    H53     0.847   .     S
O26    B43     1.482   .     S
O28    B40     1.479   .     S
O30    B45     1.407   .     S
O30    H48     0.814   .     S
O31    B41     1.482   .     S
O32    B38     1.479   .     S
O32    B45     1.371   .     S
O33    H34     0.819   .     S
O33    B42     1.382   .     S
O35    B39     1.486   .     S
O35    B42     1.369   .     S
O36    B46     1.485   .     S
O36    V269    1.949   .     S
O36    V271    1.919   .     S
O37    B44     1.373   .     S
O37    H47     0.810   .     S
B40    O273    1.442   .     S
V54    O71     1.937   .     S
V54    O75     1.926   .     S
V54    O77     1.619   .     S
V54    O81     1.961   .     S
V54    O84     1.954   .     S
V55    O70     1.943   .     S
V55    O71     1.939   .     S
V55    O73     1.934   .     S
V55    O79     1.957   .     S
V55    O82     1.629   .     S
V56    O71     1.968   .     S
V56    O74     2.004   .     S
V56    O76     1.637   .     S
V56    O79     1.938   .     S
V56    O84     1.937   .     S
V57    O73     1.941   .     S
V57    O80     1.626   .     S
V57    O226    1.948   .     S
V57    O248    1.949   .     S
V57    O75     1.929   .     S
V58    O62     1.627   .     S
V58    O225    2.036   .     S
V58    O75     1.951   .     S
V58    O81     1.932   .     S
V58    O226    1.932   .     S
V59    O70     1.938   .     S
V59    O78     1.630   .     S
V59    O224    2.015   .     S
V59    O73     1.958   .     S
V59    O248    1.919   .     S
O60    B95     1.357   .     S
O60    B96     1.474   .     S
O61    B92     1.432   .     S
O61    B252    1.442   .     S
O63    B94     1.481   .     S
O63    B97     1.365   .     S
O64    B98     1.322   .     S
O64    B99     1.455   .     S
O65    B93     1.516   .     S
O65    B94     1.525   .     S
O65    V218    2.015   .     S
O66    B92     1.508   .     S
O66    V217    2.036   .     S
O66    B96     1.511   .     S
O67    B91     1.467   .     S
O67    V216    1.948   .     S
O67    V217    1.932   .     S
O68    B94     1.426   .     S
O68    B99     1.458   .     S
O69    B93     1.469   .     S
O69    B97     1.362   .     S
O70    B92     1.477   .     S
O71    H103    0.850   .     S
O72    B91     1.443   .     S
O72    B96     1.449   .     S
O73    H102    0.845   .     S
O74    B91     1.513   .     S
O74    B99     1.519   .     S
O75    H104    0.856   .     S
O76    H105    0.846   .     S
O78    H106    0.847   .     S
O79    B96     1.482   .     S
O81    B93     1.479   .     S
O83    B98     1.407   .     S
O83    H101    0.814   .     S
O84    B94     1.482   .     S
O85    B91     1.479   .     S
O85    B98     1.371   .     S
O86    H87     0.819   .     S
O86    B95     1.382   .     S
O88    B92     1.486   .     S
O88    B95     1.369   .     S
O89    B99     1.485   .     S
O89    V216    1.949   .     S
O89    V218    1.919   .     S
O90    B97     1.373   .     S
O90    H100    0.810   .     S
B93    O220    1.442   .     S
V107   O124    1.937   .     S
V107   O128    1.926   .     S
V107   O130    1.619   .     S
V107   O134    1.961   .     S
V107   O137    1.954   .     S
V108   O123    1.943   .     S
V108   O124    1.939   .     S
V108   O126    1.934   .     S
V108   O132    1.957   .     S
V108   O135    1.629   .     S
V109   O124    1.968   .     S
V109   O127    2.004   .     S
V109   O129    1.637   .     S
V109   O132    1.938   .     S
V109   O137    1.937   .     S
V110   O126    1.941   .     S
V110   O133    1.626   .     S
V110   O385    1.948   .     S
V110   O407    1.949   .     S
V110   O128    1.929   .     S
V111   O115    1.627   .     S
V111   O384    2.036   .     S
V111   O128    1.951   .     S
V111   O134    1.932   .     S
V111   O385    1.932   .     S
V112   O123    1.938   .     S
V112   O131    1.630   .     S
V112   O383    2.015   .     S
V112   O126    1.958   .     S
V112   O407    1.919   .     S
O113   B148    1.357   .     S
O113   B149    1.474   .     S
O114   B145    1.432   .     S
O114   B411    1.442   .     S
O116   B147    1.481   .     S
O116   B150    1.365   .     S
O117   B151    1.322   .     S
O117   B152    1.455   .     S
O118   B146    1.516   .     S
O118   B147    1.525   .     S
O118   V377    2.015   .     S
O119   B145    1.508   .     S
O119   V376    2.036   .     S
O119   B149    1.511   .     S
O120   B144    1.467   .     S
O120   V375    1.948   .     S
O120   V376    1.932   .     S
O121   B147    1.426   .     S
O121   B152    1.458   .     S
O122   B146    1.469   .     S
O122   B150    1.362   .     S
O123   B145    1.477   .     S
O124   H156    0.850   .     S
O125   B144    1.443   .     S
O125   B149    1.449   .     S
O126   H155    0.845   .     S
O127   B144    1.513   .     S
O127   B152    1.519   .     S
O128   H157    0.856   .     S
O129   H158    0.846   .     S
O131   H159    0.847   .     S
O132   B149    1.482   .     S
O134   B146    1.479   .     S
O136   B151    1.407   .     S
O136   H154    0.814   .     S
O137   B147    1.482   .     S
O138   B144    1.479   .     S
O138   B151    1.371   .     S
O139   H140    0.819   .     S
O139   B148    1.382   .     S
O141   B145    1.486   .     S
O141   B148    1.369   .     S
O142   B152    1.485   .     S
O142   V375    1.949   .     S
O142   V377    1.919   .     S
O143   B150    1.373   .     S
O143   H153    0.810   .     S
B146   O379    1.442   .     S
V160   O177    1.937   .     S
V160   O181    1.926   .     S
V160   O183    1.619   .     S
V160   O187    1.961   .     S
V160   O190    1.954   .     S
V161   O176    1.943   .     S
V161   O177    1.939   .     S
V161   O179    1.934   .     S
V161   O185    1.957   .     S
V161   O188    1.629   .     S
V162   O177    1.968   .     S
V162   O180    2.004   .     S
V162   O182    1.637   .     S
V162   O185    1.938   .     S
V162   O190    1.937   .     S
V163   O179    1.941   .     S
V163   O186    1.626   .     S
V163   O332    1.948   .     S
V163   O354    1.949   .     S
V163   O181    1.929   .     S
V164   O168    1.627   .     S
V164   O331    2.036   .     S
V164   O181    1.951   .     S
V164   O187    1.932   .     S
V164   O332    1.932   .     S
V165   O176    1.938   .     S
V165   O184    1.630   .     S
V165   O330    2.015   .     S
V165   O179    1.958   .     S
V165   O354    1.919   .     S
O166   B201    1.357   .     S
O166   B202    1.474   .     S
O167   B198    1.432   .     S
O167   B358    1.442   .     S
O169   B200    1.481   .     S
O169   B203    1.365   .     S
O170   B204    1.322   .     S
O170   B205    1.455   .     S
O171   B199    1.516   .     S
O171   B200    1.525   .     S
O171   V324    2.015   .     S
O172   B198    1.508   .     S
O172   V323    2.036   .     S
O172   B202    1.511   .     S
O173   B197    1.467   .     S
O173   V322    1.948   .     S
O173   V323    1.932   .     S
O174   B200    1.426   .     S
O174   B205    1.458   .     S
O175   B199    1.469   .     S
O175   B203    1.362   .     S
O176   B198    1.477   .     S
O177   H209    0.850   .     S
O178   B197    1.443   .     S
O178   B202    1.449   .     S
O179   H208    0.845   .     S
O180   B197    1.513   .     S
O180   B205    1.519   .     S
O181   H210    0.856   .     S
O182   H211    0.846   .     S
O184   H212    0.847   .     S
O185   B202    1.482   .     S
O187   B199    1.479   .     S
O189   B204    1.407   .     S
O189   H207    0.814   .     S
O190   B200    1.482   .     S
O191   B197    1.479   .     S
O191   B204    1.371   .     S
O192   H193    0.819   .     S
O192   B201    1.382   .     S
O194   B198    1.486   .     S
O194   B201    1.369   .     S
O195   B205    1.485   .     S
O195   V322    1.949   .     S
O195   V324    1.919   .     S
O196   B203    1.373   .     S
O196   H206    0.810   .     S
B199   O326    1.442   .     S
V213   O230    1.937   .     S
V213   O234    1.926   .     S
V213   O236    1.619   .     S
V213   O240    1.961   .     S
V213   O243    1.954   .     S
V214   O229    1.943   .     S
V214   O230    1.939   .     S
V214   O232    1.934   .     S
V214   O238    1.957   .     S
V214   O241    1.629   .     S
V215   O230    1.968   .     S
V215   O233    2.004   .     S
V215   O235    1.637   .     S
V215   O238    1.938   .     S
V215   O243    1.937   .     S
V216   O232    1.941   .     S
V216   O239    1.626   .     S
V216   O234    1.929   .     S
V217   O221    1.627   .     S
V217   O234    1.951   .     S
V217   O240    1.932   .     S
V218   O229    1.938   .     S
V218   O237    1.630   .     S
V218   O232    1.958   .     S
O219   B254    1.357   .     S
O219   B255    1.474   .     S
O220   B251    1.432   .     S
O222   B253    1.481   .     S
O222   B256    1.365   .     S
O223   B257    1.322   .     S
O223   B258    1.455   .     S
O224   B252    1.516   .     S
O224   B253    1.525   .     S
O225   B251    1.508   .     S
O225   B255    1.511   .     S
O226   B250    1.467   .     S
O227   B253    1.426   .     S
O227   B258    1.458   .     S
O228   B252    1.469   .     S
O228   B256    1.362   .     S
O229   B251    1.477   .     S
O230   H262    0.850   .     S
O231   B250    1.443   .     S
O231   B255    1.449   .     S
O232   H261    0.845   .     S
O233   B250    1.513   .     S
O233   B258    1.519   .     S
O234   H263    0.856   .     S
O235   H264    0.846   .     S
O237   H265    0.847   .     S
O238   B255    1.482   .     S
O240   B252    1.479   .     S
O242   B257    1.407   .     S
O242   H260    0.814   .     S
O243   B253    1.482   .     S
O244   B250    1.479   .     S
O244   B257    1.371   .     S
O245   H246    0.819   .     S
O245   B254    1.382   .     S
O247   B251    1.486   .     S
O247   B254    1.369   .     S
O248   B258    1.485   .     S
O249   B256    1.373   .     S
O249   H259    0.810   .     S
V266   O283    1.937   .     S
V266   O287    1.926   .     S
V266   O289    1.619   .     S
V266   O293    1.961   .     S
V266   O296    1.954   .     S
V267   O282    1.943   .     S
V267   O283    1.939   .     S
V267   O285    1.934   .     S
V267   O291    1.957   .     S
V267   O294    1.629   .     S
V268   O283    1.968   .     S
V268   O286    2.004   .     S
V268   O288    1.637   .     S
V268   O291    1.938   .     S
V268   O296    1.937   .     S
V269   O285    1.941   .     S
V269   O292    1.626   .     S
V269   O287    1.929   .     S
V270   O274    1.627   .     S
V270   O287    1.951   .     S
V270   O293    1.932   .     S
V271   O282    1.938   .     S
V271   O290    1.630   .     S
V271   O285    1.958   .     S
O272   B307    1.357   .     S
O272   B308    1.474   .     S
O273   B304    1.432   .     S
O275   B306    1.481   .     S
O275   B309    1.365   .     S
O276   B310    1.322   .     S
O276   B311    1.455   .     S
O277   B305    1.516   .     S
O277   B306    1.525   .     S
O278   B304    1.508   .     S
O278   B308    1.511   .     S
O279   B303    1.467   .     S
O280   B306    1.426   .     S
O280   B311    1.458   .     S
O281   B305    1.469   .     S
O281   B309    1.362   .     S
O282   B304    1.477   .     S
O283   H315    0.850   .     S
O284   B303    1.443   .     S
O284   B308    1.449   .     S
O285   H314    0.845   .     S
O286   B303    1.513   .     S
O286   B311    1.519   .     S
O287   H316    0.856   .     S
O288   H317    0.846   .     S
O290   H318    0.847   .     S
O291   B308    1.482   .     S
O293   B305    1.479   .     S
O295   B310    1.407   .     S
O295   H313    0.814   .     S
O296   B306    1.482   .     S
O297   B303    1.479   .     S
O297   B310    1.371   .     S
O298   H299    0.819   .     S
O298   B307    1.382   .     S
O300   B304    1.486   .     S
O300   B307    1.369   .     S
O301   B311    1.485   .     S
O302   B309    1.373   .     S
O302   H312    0.810   .     S
V319   O336    1.937   .     S
V319   O340    1.926   .     S
V319   O342    1.619   .     S
V319   O346    1.961   .     S
V319   O349    1.954   .     S
V320   O335    1.943   .     S
V320   O336    1.939   .     S
V320   O338    1.934   .     S
V320   O344    1.957   .     S
V320   O347    1.629   .     S
V321   O336    1.968   .     S
V321   O339    2.004   .     S
V321   O341    1.637   .     S
V321   O344    1.938   .     S
V321   O349    1.937   .     S
V322   O338    1.941   .     S
V322   O345    1.626   .     S
V322   O340    1.929   .     S
V323   O327    1.627   .     S
V323   O340    1.951   .     S
V323   O346    1.932   .     S
V324   O335    1.938   .     S
V324   O343    1.630   .     S
V324   O338    1.958   .     S
O325   B360    1.357   .     S
O325   B361    1.474   .     S
O326   B357    1.432   .     S
O328   B359    1.481   .     S
O328   B362    1.365   .     S
O329   B363    1.322   .     S
O329   B364    1.455   .     S
O330   B358    1.516   .     S
O330   B359    1.525   .     S
O331   B357    1.508   .     S
O331   B361    1.511   .     S
O332   B356    1.467   .     S
O333   B359    1.426   .     S
O333   B364    1.458   .     S
O334   B358    1.469   .     S
O334   B362    1.362   .     S
O335   B357    1.477   .     S
O336   H368    0.850   .     S
O337   B356    1.443   .     S
O337   B361    1.449   .     S
O338   H367    0.845   .     S
O339   B356    1.513   .     S
O339   B364    1.519   .     S
O340   H369    0.856   .     S
O341   H370    0.846   .     S
O343   H371    0.847   .     S
O344   B361    1.482   .     S
O346   B358    1.479   .     S
O348   B363    1.407   .     S
O348   H366    0.814   .     S
O349   B359    1.482   .     S
O350   B356    1.479   .     S
O350   B363    1.371   .     S
O351   H352    0.819   .     S
O351   B360    1.382   .     S
O353   B357    1.486   .     S
O353   B360    1.369   .     S
O354   B364    1.485   .     S
O355   B362    1.373   .     S
O355   H365    0.810   .     S
V372   O389    1.937   .     S
V372   O393    1.926   .     S
V372   O395    1.619   .     S
V372   O399    1.961   .     S
V372   O402    1.954   .     S
V373   O388    1.943   .     S
V373   O389    1.939   .     S
V373   O391    1.934   .     S
V373   O397    1.957   .     S
V373   O400    1.629   .     S
V374   O389    1.968   .     S
V374   O392    2.004   .     S
V374   O394    1.637   .     S
V374   O397    1.938   .     S
V374   O402    1.937   .     S
V375   O391    1.941   .     S
V375   O398    1.626   .     S
V375   O393    1.929   .     S
V376   O380    1.627   .     S
V376   O393    1.951   .     S
V376   O399    1.932   .     S
V377   O388    1.938   .     S
V377   O396    1.630   .     S
V377   O391    1.958   .     S
O378   B413    1.357   .     S
O378   B414    1.474   .     S
O379   B410    1.432   .     S
O381   B412    1.481   .     S
O381   B415    1.365   .     S
O382   B416    1.322   .     S
O382   B417    1.455   .     S
O383   B411    1.516   .     S
O383   B412    1.525   .     S
O384   B410    1.508   .     S
O384   B414    1.511   .     S
O385   B409    1.467   .     S
O386   B412    1.426   .     S
O386   B417    1.458   .     S
O387   B411    1.469   .     S
O387   B415    1.362   .     S
O388   B410    1.477   .     S
O389   H421    0.850   .     S
O390   B409    1.443   .     S
O390   B414    1.449   .     S
O391   H420    0.845   .     S
O392   B409    1.513   .     S
O392   B417    1.519   .     S
O393   H422    0.856   .     S
O394   H423    0.846   .     S
O396   H424    0.847   .     S
O397   B414    1.482   .     S
O399   B411    1.479   .     S
O401   B416    1.407   .     S
O401   H419    0.814   .     S
O402   B412    1.482   .     S
O403   B409    1.479   .     S
O403   B416    1.371   .     S
O404   H405    0.819   .     S
O404   B413    1.382   .     S
O406   B410    1.486   .     S
O406   B413    1.369   .     S
O407   B417    1.485   .     S
O408   B415    1.373   .     S
O408   H418    0.810   .     S
