data_LUGVOA
_audit_creation_date              2024-06-11
_audit_creation_method            'Materials Studio'
_symmetry_space_group_name_H-M    'P1'
_symmetry_Int_Tables_number       1
_symmetry_cell_setting            triclinic
loop_
_symmetry_equiv_pos_as_xyz
  x,y,z
_cell_length_a                    33.1058
_cell_length_b                    33.1058
_cell_length_c                    33.1058
_cell_angle_alpha                 90.0000
_cell_angle_beta                  90.0000
_cell_angle_gamma                 90.0000
loop_
_atom_site_label
_atom_site_type_symbol
_atom_site_fract_x
_atom_site_fract_y
_atom_site_fract_z
_atom_site_U_iso_or_equiv
_atom_site_adp_type
_atom_site_occupancy
C1     C     0.05205   0.08846   0.16485   0.00000  Uiso   1.00
C2     C     0.02080   0.08854   0.13381   0.00000  Uiso   1.00
N3     N     0.03320   0.09019   0.09573   0.00000  Uiso   1.00
O4     O     0.04417   0.08702   0.20073   0.00000  Uiso   1.00
O5     O     0.09220   0.09018   0.15113   0.00000  Uiso   1.00
C6     C     0.05205   0.58846   0.66485   0.00000  Uiso   1.00
C7     C     0.02080   0.58854   0.63381   0.00000  Uiso   1.00
N8     N     0.03320   0.59019   0.59573   0.00000  Uiso   1.00
O9     O     0.04417   0.58702   0.70073   0.00000  Uiso   1.00
O10    O     0.09220   0.59018   0.65113   0.00000  Uiso   1.00
C11    C     0.55205   0.08846   0.66485   0.00000  Uiso   1.00
C12    C     0.52080   0.08854   0.63381   0.00000  Uiso   1.00
N13    N     0.53320   0.09019   0.59573   0.00000  Uiso   1.00
O14    O     0.54417   0.08702   0.70073   0.00000  Uiso   1.00
O15    O     0.59220   0.09018   0.65113   0.00000  Uiso   1.00
C16    C     0.55205   0.58846   0.16485   0.00000  Uiso   1.00
C17    C     0.52080   0.58854   0.13381   0.00000  Uiso   1.00
N18    N     0.53320   0.59019   0.09573   0.00000  Uiso   1.00
O19    O     0.54417   0.58702   0.20073   0.00000  Uiso   1.00
O20    O     0.59220   0.59018   0.15113   0.00000  Uiso   1.00
C21    C    -0.05205  -0.08846   0.16485   0.00000  Uiso   1.00
C22    C    -0.02080  -0.08854   0.13381   0.00000  Uiso   1.00
N23    N    -0.03320  -0.09019   0.09572   0.00000  Uiso   1.00
O24    O    -0.04417  -0.08702   0.20073   0.00000  Uiso   1.00
O25    O    -0.09220  -0.09018   0.15113   0.00000  Uiso   1.00
C26    C    -0.05205   0.41154   0.66485   0.00000  Uiso   1.00
C27    C    -0.02080   0.41146   0.63381   0.00000  Uiso   1.00
N28    N    -0.03320   0.40981   0.59572   0.00000  Uiso   1.00
O29    O    -0.04417   0.41298   0.70073   0.00000  Uiso   1.00
O30    O    -0.09220   0.40982   0.65113   0.00000  Uiso   1.00
C31    C     0.44795  -0.08846   0.66485   0.00000  Uiso   1.00
C32    C     0.47920  -0.08854   0.63381   0.00000  Uiso   1.00
N33    N     0.46680  -0.09019   0.59573   0.00000  Uiso   1.00
O34    O     0.45583  -0.08702   0.70073   0.00000  Uiso   1.00
O35    O     0.40780  -0.09018   0.65113   0.00000  Uiso   1.00
C36    C     0.44795   0.41154   0.16485   0.00000  Uiso   1.00
C37    C     0.47920   0.41146   0.13381   0.00000  Uiso   1.00
N38    N     0.46680   0.40981   0.09573   0.00000  Uiso   1.00
O39    O     0.45583   0.41298   0.20073   0.00000  Uiso   1.00
O40    O     0.40780   0.40982   0.15113   0.00000  Uiso   1.00
C41    C    -0.05205   0.08846  -0.16485   0.00000  Uiso   1.00
C42    C    -0.02080   0.08854  -0.13381   0.00000  Uiso   1.00
N43    N    -0.03320   0.09019  -0.09573   0.00000  Uiso   1.00
O44    O    -0.04417   0.08702  -0.20073   0.00000  Uiso   1.00
O45    O    -0.09220   0.09018  -0.15113   0.00000  Uiso   1.00
C46    C    -0.05205   0.58846   0.33515   0.00000  Uiso   1.00
C47    C    -0.02080   0.58854   0.36619   0.00000  Uiso   1.00
N48    N    -0.03320   0.59019   0.40427   0.00000  Uiso   1.00
O49    O    -0.04417   0.58702   0.29927   0.00000  Uiso   1.00
O50    O    -0.09220   0.59018   0.34887   0.00000  Uiso   1.00
C51    C     0.44795   0.08846   0.33515   0.00000  Uiso   1.00
C52    C     0.47920   0.08854   0.36619   0.00000  Uiso   1.00
N53    N     0.46680   0.09019   0.40427   0.00000  Uiso   1.00
O54    O     0.45583   0.08702   0.29927   0.00000  Uiso   1.00
O55    O     0.40780   0.09018   0.34887   0.00000  Uiso   1.00
C56    C     0.44795   0.58846  -0.16485   0.00000  Uiso   1.00
C57    C     0.47920   0.58854  -0.13381   0.00000  Uiso   1.00
N58    N     0.46680   0.59019  -0.09573   0.00000  Uiso   1.00
O59    O     0.45583   0.58702  -0.20073   0.00000  Uiso   1.00
O60    O     0.40780   0.59018  -0.15113   0.00000  Uiso   1.00
C61    C     0.05205  -0.08846  -0.16485   0.00000  Uiso   1.00
C62    C     0.02080  -0.08854  -0.13381   0.00000  Uiso   1.00
N63    N     0.03320  -0.09019  -0.09573   0.00000  Uiso   1.00
O64    O     0.04417  -0.08702  -0.20073   0.00000  Uiso   1.00
O65    O     0.09220  -0.09018  -0.15113   0.00000  Uiso   1.00
C66    C     0.05205   0.41154   0.33515   0.00000  Uiso   1.00
C67    C     0.02080   0.41146   0.36619   0.00000  Uiso   1.00
N68    N     0.03320   0.40981   0.40427   0.00000  Uiso   1.00
O69    O     0.04417   0.41298   0.29927   0.00000  Uiso   1.00
O70    O     0.09220   0.40982   0.34887   0.00000  Uiso   1.00
C71    C     0.55205  -0.08846   0.33515   0.00000  Uiso   1.00
C72    C     0.52080  -0.08854   0.36619   0.00000  Uiso   1.00
N73    N     0.53320  -0.09019   0.40427   0.00000  Uiso   1.00
O74    O     0.54417  -0.08702   0.29927   0.00000  Uiso   1.00
O75    O     0.59220  -0.09018   0.34887   0.00000  Uiso   1.00
C76    C     0.55205   0.41154  -0.16485   0.00000  Uiso   1.00
C77    C     0.52080   0.41146  -0.13381   0.00000  Uiso   1.00
N78    N     0.53320   0.40981  -0.09573   0.00000  Uiso   1.00
O79    O     0.54417   0.41298  -0.20073   0.00000  Uiso   1.00
O80    O     0.59220   0.40982  -0.15113   0.00000  Uiso   1.00
C81    C     0.16485   0.05205   0.08846   0.00000  Uiso   1.00
C82    C     0.13381   0.02080   0.08854   0.00000  Uiso   1.00
N83    N     0.09573   0.03320   0.09019   0.00000  Uiso   1.00
O84    O     0.20073   0.04417   0.08702   0.00000  Uiso   1.00
O85    O     0.15113   0.09220   0.09018   0.00000  Uiso   1.00
C86    C     0.16485   0.55205   0.58846   0.00000  Uiso   1.00
C87    C     0.13381   0.52080   0.58854   0.00000  Uiso   1.00
N88    N     0.09573   0.53320   0.59019   0.00000  Uiso   1.00
O89    O     0.20073   0.54417   0.58702   0.00000  Uiso   1.00
O90    O     0.15113   0.59220   0.59018   0.00000  Uiso   1.00
C91    C     0.66485   0.05205   0.58846   0.00000  Uiso   1.00
C92    C     0.63381   0.02080   0.58854   0.00000  Uiso   1.00
N93    N     0.59573   0.03320   0.59019   0.00000  Uiso   1.00
O94    O     0.70073   0.04417   0.58702   0.00000  Uiso   1.00
O95    O     0.65113   0.09220   0.59018   0.00000  Uiso   1.00
C96    C     0.66485   0.55205   0.08846   0.00000  Uiso   1.00
C97    C     0.63381   0.52080   0.08854   0.00000  Uiso   1.00
N98    N     0.59572   0.53320   0.09019   0.00000  Uiso   1.00
O99    O     0.70073   0.54417   0.08702   0.00000  Uiso   1.00
O100   O     0.65113   0.59220   0.09018   0.00000  Uiso   1.00
C101   C     0.16485  -0.05205  -0.08846   0.00000  Uiso   1.00
C102   C     0.13381  -0.02080  -0.08854   0.00000  Uiso   1.00
N103   N     0.09573  -0.03320  -0.09019   0.00000  Uiso   1.00
O104   O     0.20073  -0.04417  -0.08702   0.00000  Uiso   1.00
O105   O     0.15113  -0.09220  -0.09018   0.00000  Uiso   1.00
C106   C     0.16485   0.44795   0.41154   0.00000  Uiso   1.00
C107   C     0.13381   0.47920   0.41146   0.00000  Uiso   1.00
N108   N     0.09573   0.46680   0.40981   0.00000  Uiso   1.00
O109   O     0.20073   0.45583   0.41298   0.00000  Uiso   1.00
O110   O     0.15113   0.40780   0.40982   0.00000  Uiso   1.00
C111   C     0.66485  -0.05205   0.41154   0.00000  Uiso   1.00
C112   C     0.63381  -0.02080   0.41146   0.00000  Uiso   1.00
N113   N     0.59573  -0.03320   0.40981   0.00000  Uiso   1.00
O114   O     0.70073  -0.04417   0.41298   0.00000  Uiso   1.00
O115   O     0.65113  -0.09220   0.40982   0.00000  Uiso   1.00
C116   C     0.66485   0.44795  -0.08846   0.00000  Uiso   1.00
C117   C     0.63381   0.47920  -0.08854   0.00000  Uiso   1.00
N118   N     0.59573   0.46680  -0.09019   0.00000  Uiso   1.00
O119   O     0.70073   0.45583  -0.08702   0.00000  Uiso   1.00
O120   O     0.65113   0.40780  -0.09018   0.00000  Uiso   1.00
C121   C    -0.16485  -0.05205   0.08846   0.00000  Uiso   1.00
C122   C    -0.13381  -0.02080   0.08854   0.00000  Uiso   1.00
N123   N    -0.09573  -0.03320   0.09019   0.00000  Uiso   1.00
O124   O    -0.20073  -0.04417   0.08702   0.00000  Uiso   1.00
O125   O    -0.15113  -0.09220   0.09018   0.00000  Uiso   1.00
C126   C    -0.16485   0.44795   0.58846   0.00000  Uiso   1.00
C127   C    -0.13381   0.47920   0.58854   0.00000  Uiso   1.00
N128   N    -0.09573   0.46680   0.59019   0.00000  Uiso   1.00
O129   O    -0.20073   0.45583   0.58702   0.00000  Uiso   1.00
O130   O    -0.15113   0.40780   0.59018   0.00000  Uiso   1.00
C131   C     0.33515  -0.05205   0.58846   0.00000  Uiso   1.00
C132   C     0.36619  -0.02080   0.58854   0.00000  Uiso   1.00
N133   N     0.40427  -0.03320   0.59019   0.00000  Uiso   1.00
O134   O     0.29927  -0.04417   0.58702   0.00000  Uiso   1.00
O135   O     0.34887  -0.09220   0.59018   0.00000  Uiso   1.00
C136   C     0.33515   0.44795   0.08846   0.00000  Uiso   1.00
C137   C     0.36619   0.47920   0.08854   0.00000  Uiso   1.00
N138   N     0.40427   0.46680   0.09019   0.00000  Uiso   1.00
O139   O     0.29927   0.45583   0.08702   0.00000  Uiso   1.00
O140   O     0.34887   0.40780   0.09018   0.00000  Uiso   1.00
C141   C    -0.16485   0.05205  -0.08846   0.00000  Uiso   1.00
C142   C    -0.13381   0.02080  -0.08854   0.00000  Uiso   1.00
N143   N    -0.09573   0.03320  -0.09019   0.00000  Uiso   1.00
O144   O    -0.20073   0.04417  -0.08702   0.00000  Uiso   1.00
O145   O    -0.15113   0.09220  -0.09018   0.00000  Uiso   1.00
C146   C    -0.16485   0.55205   0.41154   0.00000  Uiso   1.00
C147   C    -0.13381   0.52080   0.41146   0.00000  Uiso   1.00
N148   N    -0.09573   0.53320   0.40981   0.00000  Uiso   1.00
O149   O    -0.20073   0.54417   0.41298   0.00000  Uiso   1.00
O150   O    -0.15113   0.59220   0.40982   0.00000  Uiso   1.00
C151   C     0.33515   0.05205   0.41154   0.00000  Uiso   1.00
C152   C     0.36619   0.02080   0.41146   0.00000  Uiso   1.00
N153   N     0.40427   0.03320   0.40981   0.00000  Uiso   1.00
O154   O     0.29927   0.04417   0.41298   0.00000  Uiso   1.00
O155   O     0.34887   0.09220   0.40982   0.00000  Uiso   1.00
C156   C     0.33515   0.55205  -0.08846   0.00000  Uiso   1.00
C157   C     0.36619   0.52080  -0.08854   0.00000  Uiso   1.00
N158   N     0.40427   0.53320  -0.09019   0.00000  Uiso   1.00
O159   O     0.29927   0.54417  -0.08702   0.00000  Uiso   1.00
O160   O     0.34887   0.59220  -0.09018   0.00000  Uiso   1.00
C161   C     0.08846   0.16485   0.05205   0.00000  Uiso   1.00
C162   C     0.08854   0.13381   0.02080   0.00000  Uiso   1.00
N163   N     0.09019   0.09572   0.03320   0.00000  Uiso   1.00
O164   O     0.08702   0.20073   0.04417   0.00000  Uiso   1.00
O165   O     0.09018   0.15113   0.09220   0.00000  Uiso   1.00
C166   C     0.08846   0.66485   0.55205   0.00000  Uiso   1.00
C167   C     0.08854   0.63381   0.52080   0.00000  Uiso   1.00
N168   N     0.09019   0.59573   0.53320   0.00000  Uiso   1.00
O169   O     0.08702   0.70073   0.54417   0.00000  Uiso   1.00
O170   O     0.09018   0.65113   0.59220   0.00000  Uiso   1.00
C171   C     0.58846   0.16485   0.55205   0.00000  Uiso   1.00
C172   C     0.58854   0.13381   0.52080   0.00000  Uiso   1.00
N173   N     0.59019   0.09573   0.53320   0.00000  Uiso   1.00
O174   O     0.58702   0.20073   0.54417   0.00000  Uiso   1.00
O175   O     0.59018   0.15113   0.59220   0.00000  Uiso   1.00
C176   C     0.58846   0.66485   0.05205   0.00000  Uiso   1.00
C177   C     0.58854   0.63381   0.02080   0.00000  Uiso   1.00
N178   N     0.59019   0.59573   0.03320   0.00000  Uiso   1.00
O179   O     0.58702   0.70073   0.04417   0.00000  Uiso   1.00
O180   O     0.59018   0.65113   0.09220   0.00000  Uiso   1.00
C181   C    -0.08846   0.16485  -0.05205   0.00000  Uiso   1.00
C182   C    -0.08854   0.13381  -0.02080   0.00000  Uiso   1.00
N183   N    -0.09019   0.09573  -0.03320   0.00000  Uiso   1.00
O184   O    -0.08702   0.20073  -0.04417   0.00000  Uiso   1.00
O185   O    -0.09018   0.15113  -0.09220   0.00000  Uiso   1.00
C186   C    -0.08846   0.66485   0.44795   0.00000  Uiso   1.00
C187   C    -0.08854   0.63381   0.47920   0.00000  Uiso   1.00
N188   N    -0.09019   0.59573   0.46680   0.00000  Uiso   1.00
O189   O    -0.08702   0.70073   0.45583   0.00000  Uiso   1.00
O190   O    -0.09018   0.65113   0.40780   0.00000  Uiso   1.00
C191   C     0.41154   0.16485   0.44795   0.00000  Uiso   1.00
C192   C     0.41146   0.13381   0.47920   0.00000  Uiso   1.00
N193   N     0.40981   0.09573   0.46680   0.00000  Uiso   1.00
O194   O     0.41298   0.20073   0.45583   0.00000  Uiso   1.00
O195   O     0.40982   0.15113   0.40780   0.00000  Uiso   1.00
C196   C     0.41154   0.66485  -0.05205   0.00000  Uiso   1.00
C197   C     0.41146   0.63381  -0.02080   0.00000  Uiso   1.00
N198   N     0.40981   0.59573  -0.03320   0.00000  Uiso   1.00
O199   O     0.41298   0.70073  -0.04417   0.00000  Uiso   1.00
O200   O     0.40982   0.65113  -0.09220   0.00000  Uiso   1.00
C201   C     0.08846  -0.16485  -0.05205   0.00000  Uiso   1.00
C202   C     0.08854  -0.13381  -0.02080   0.00000  Uiso   1.00
N203   N     0.09019  -0.09573  -0.03320   0.00000  Uiso   1.00
O204   O     0.08702  -0.20073  -0.04417   0.00000  Uiso   1.00
O205   O     0.09018  -0.15113  -0.09220   0.00000  Uiso   1.00
C206   C     0.08846   0.33515   0.44795   0.00000  Uiso   1.00
C207   C     0.08854   0.36619   0.47920   0.00000  Uiso   1.00
N208   N     0.09019   0.40427   0.46680   0.00000  Uiso   1.00
O209   O     0.08702   0.29927   0.45583   0.00000  Uiso   1.00
O210   O     0.09018   0.34887   0.40780   0.00000  Uiso   1.00
C211   C     0.58846  -0.16485   0.44795   0.00000  Uiso   1.00
C212   C     0.58854  -0.13381   0.47920   0.00000  Uiso   1.00
N213   N     0.59019  -0.09573   0.46680   0.00000  Uiso   1.00
O214   O     0.58702  -0.20073   0.45583   0.00000  Uiso   1.00
O215   O     0.59018  -0.15113   0.40780   0.00000  Uiso   1.00
C216   C     0.58846   0.33515  -0.05205   0.00000  Uiso   1.00
C217   C     0.58854   0.36619  -0.02080   0.00000  Uiso   1.00
N218   N     0.59019   0.40427  -0.03320   0.00000  Uiso   1.00
O219   O     0.58702   0.29927  -0.04417   0.00000  Uiso   1.00
O220   O     0.59018   0.34887  -0.09220   0.00000  Uiso   1.00
C221   C    -0.08846  -0.16485   0.05205   0.00000  Uiso   1.00
C222   C    -0.08854  -0.13381   0.02080   0.00000  Uiso   1.00
N223   N    -0.09019  -0.09573   0.03320   0.00000  Uiso   1.00
O224   O    -0.08702  -0.20073   0.04417   0.00000  Uiso   1.00
O225   O    -0.09018  -0.15113   0.09220   0.00000  Uiso   1.00
C226   C    -0.08846   0.33515   0.55205   0.00000  Uiso   1.00
C227   C    -0.08854   0.36619   0.52080   0.00000  Uiso   1.00
N228   N    -0.09019   0.40427   0.53320   0.00000  Uiso   1.00
O229   O    -0.08702   0.29927   0.54417   0.00000  Uiso   1.00
O230   O    -0.09018   0.34887   0.59220   0.00000  Uiso   1.00
C231   C     0.41154  -0.16485   0.55205   0.00000  Uiso   1.00
C232   C     0.41146  -0.13381   0.52080   0.00000  Uiso   1.00
N233   N     0.40981  -0.09573   0.53320   0.00000  Uiso   1.00
O234   O     0.41298  -0.20073   0.54417   0.00000  Uiso   1.00
O235   O     0.40982  -0.15113   0.59220   0.00000  Uiso   1.00
C236   C     0.41154   0.33515   0.05205   0.00000  Uiso   1.00
C237   C     0.41146   0.36619   0.02080   0.00000  Uiso   1.00
N238   N     0.40981   0.40428   0.03320   0.00000  Uiso   1.00
O239   O     0.41298   0.29927   0.04417   0.00000  Uiso   1.00
O240   O     0.40982   0.34887   0.09220   0.00000  Uiso   1.00
C241   C     0.58846   0.55205   0.33515   0.00000  Uiso   1.00
C242   C     0.58854   0.52080   0.36619   0.00000  Uiso   1.00
N243   N     0.59019   0.53320   0.40427   0.00000  Uiso   1.00
O244   O     0.58702   0.54417   0.29927   0.00000  Uiso   1.00
O245   O     0.59018   0.59220   0.34887   0.00000  Uiso   1.00
C246   C     0.58846   0.05205  -0.16485   0.00000  Uiso   1.00
C247   C     0.58854   0.02080  -0.13381   0.00000  Uiso   1.00
N248   N     0.59019   0.03320  -0.09573   0.00000  Uiso   1.00
O249   O     0.58702   0.04417  -0.20073   0.00000  Uiso   1.00
O250   O     0.59018   0.09220  -0.15113   0.00000  Uiso   1.00
C251   C     0.08846   0.55205  -0.16485   0.00000  Uiso   1.00
C252   C     0.08854   0.52080  -0.13381   0.00000  Uiso   1.00
N253   N     0.09019   0.53320  -0.09573   0.00000  Uiso   1.00
O254   O     0.08702   0.54417  -0.20073   0.00000  Uiso   1.00
O255   O     0.09018   0.59220  -0.15113   0.00000  Uiso   1.00
C256   C     0.08846   0.05205   0.33515   0.00000  Uiso   1.00
C257   C     0.08854   0.02080   0.36619   0.00000  Uiso   1.00
N258   N     0.09019   0.03320   0.40427   0.00000  Uiso   1.00
O259   O     0.08702   0.04417   0.29927   0.00000  Uiso   1.00
O260   O     0.09018   0.09220   0.34887   0.00000  Uiso   1.00
C261   C     0.41154   0.44795   0.33515   0.00000  Uiso   1.00
C262   C     0.41146   0.47920   0.36619   0.00000  Uiso   1.00
N263   N     0.40981   0.46680   0.40427   0.00000  Uiso   1.00
O264   O     0.41298   0.45583   0.29927   0.00000  Uiso   1.00
O265   O     0.40982   0.40780   0.34887   0.00000  Uiso   1.00
C266   C     0.41154  -0.05205  -0.16485   0.00000  Uiso   1.00
C267   C     0.41146  -0.02080  -0.13381   0.00000  Uiso   1.00
N268   N     0.40981  -0.03320  -0.09573   0.00000  Uiso   1.00
O269   O     0.41298  -0.04417  -0.20073   0.00000  Uiso   1.00
O270   O     0.40982  -0.09220  -0.15113   0.00000  Uiso   1.00
C271   C    -0.08846   0.44795  -0.16485   0.00000  Uiso   1.00
C272   C    -0.08854   0.47920  -0.13381   0.00000  Uiso   1.00
N273   N    -0.09019   0.46680  -0.09573   0.00000  Uiso   1.00
O274   O    -0.08702   0.45583  -0.20073   0.00000  Uiso   1.00
O275   O    -0.09018   0.40780  -0.15113   0.00000  Uiso   1.00
C276   C    -0.08846  -0.05205   0.33515   0.00000  Uiso   1.00
C277   C    -0.08854  -0.02080   0.36619   0.00000  Uiso   1.00
N278   N    -0.09019  -0.03320   0.40427   0.00000  Uiso   1.00
O279   O    -0.08702  -0.04417   0.29927   0.00000  Uiso   1.00
O280   O    -0.09018  -0.09220   0.34887   0.00000  Uiso   1.00
C281   C     0.58846   0.44795   0.66485   0.00000  Uiso   1.00
C282   C     0.58854   0.47920   0.63381   0.00000  Uiso   1.00
N283   N     0.59019   0.46680   0.59573   0.00000  Uiso   1.00
O284   O     0.58702   0.45583   0.70073   0.00000  Uiso   1.00
O285   O     0.59018   0.40780   0.65113   0.00000  Uiso   1.00
C286   C     0.58846  -0.05205   0.16485   0.00000  Uiso   1.00
C287   C     0.58854  -0.02080   0.13381   0.00000  Uiso   1.00
N288   N     0.59019  -0.03320   0.09573   0.00000  Uiso   1.00
O289   O     0.58702  -0.04417   0.20073   0.00000  Uiso   1.00
O290   O     0.59018  -0.09220   0.15113   0.00000  Uiso   1.00
C291   C     0.08846   0.44795   0.16485   0.00000  Uiso   1.00
C292   C     0.08854   0.47920   0.13381   0.00000  Uiso   1.00
N293   N     0.09019   0.46680   0.09573   0.00000  Uiso   1.00
O294   O     0.08702   0.45583   0.20073   0.00000  Uiso   1.00
O295   O     0.09018   0.40780   0.15113   0.00000  Uiso   1.00
C296   C     0.08846  -0.05205   0.66485   0.00000  Uiso   1.00
C297   C     0.08854  -0.02080   0.63381   0.00000  Uiso   1.00
N298   N     0.09019  -0.03320   0.59573   0.00000  Uiso   1.00
O299   O     0.08702  -0.04417   0.70073   0.00000  Uiso   1.00
O300   O     0.09018  -0.09220   0.65113   0.00000  Uiso   1.00
C301   C     0.41154   0.55205   0.66485   0.00000  Uiso   1.00
C302   C     0.41146   0.52080   0.63381   0.00000  Uiso   1.00
N303   N     0.40981   0.53320   0.59573   0.00000  Uiso   1.00
O304   O     0.41298   0.54417   0.70073   0.00000  Uiso   1.00
O305   O     0.40982   0.59220   0.65113   0.00000  Uiso   1.00
C306   C     0.41154   0.05205   0.16485   0.00000  Uiso   1.00
C307   C     0.41146   0.02080   0.13381   0.00000  Uiso   1.00
N308   N     0.40981   0.03320   0.09573   0.00000  Uiso   1.00
O309   O     0.41298   0.04417   0.20073   0.00000  Uiso   1.00
O310   O     0.40982   0.09220   0.15113   0.00000  Uiso   1.00
C311   C    -0.08846   0.55205   0.16485   0.00000  Uiso   1.00
C312   C    -0.08854   0.52080   0.13381   0.00000  Uiso   1.00
N313   N    -0.09019   0.53320   0.09573   0.00000  Uiso   1.00
O314   O    -0.08702   0.54417   0.20073   0.00000  Uiso   1.00
O315   O    -0.09018   0.59220   0.15113   0.00000  Uiso   1.00
C316   C    -0.08846   0.05205   0.66485   0.00000  Uiso   1.00
C317   C    -0.08854   0.02080   0.63381   0.00000  Uiso   1.00
N318   N    -0.09019   0.03320   0.59573   0.00000  Uiso   1.00
O319   O    -0.08702   0.04417   0.70073   0.00000  Uiso   1.00
O320   O    -0.09018   0.09220   0.65113   0.00000  Uiso   1.00
C321   C     0.55205   0.66485   0.41154   0.00000  Uiso   1.00
C322   C     0.52080   0.63381   0.41146   0.00000  Uiso   1.00
N323   N     0.53320   0.59573   0.40981   0.00000  Uiso   1.00
O324   O     0.54417   0.70073   0.41298   0.00000  Uiso   1.00
O325   O     0.59220   0.65113   0.40982   0.00000  Uiso   1.00
C326   C     0.55205   0.16485  -0.08846   0.00000  Uiso   1.00
C327   C     0.52080   0.13381  -0.08854   0.00000  Uiso   1.00
N328   N     0.53320   0.09573  -0.09019   0.00000  Uiso   1.00
O329   O     0.54417   0.20073  -0.08702   0.00000  Uiso   1.00
O330   O     0.59220   0.15113  -0.09018   0.00000  Uiso   1.00
C331   C     0.05205   0.66485  -0.08846   0.00000  Uiso   1.00
C332   C     0.02080   0.63381  -0.08854   0.00000  Uiso   1.00
N333   N     0.03320   0.59573  -0.09019   0.00000  Uiso   1.00
O334   O     0.04417   0.70073  -0.08702   0.00000  Uiso   1.00
O335   O     0.09220   0.65113  -0.09018   0.00000  Uiso   1.00
C336   C     0.05205   0.16485   0.41154   0.00000  Uiso   1.00
C337   C     0.02080   0.13381   0.41146   0.00000  Uiso   1.00
N338   N     0.03320   0.09572   0.40981   0.00000  Uiso   1.00
O339   O     0.04417   0.20073   0.41298   0.00000  Uiso   1.00
O340   O     0.09220   0.15113   0.40982   0.00000  Uiso   1.00
C341   C     0.44795   0.66485   0.58846   0.00000  Uiso   1.00
C342   C     0.47920   0.63381   0.58854   0.00000  Uiso   1.00
N343   N     0.46680   0.59573   0.59019   0.00000  Uiso   1.00
O344   O     0.45583   0.70073   0.58702   0.00000  Uiso   1.00
O345   O     0.40780   0.65113   0.59018   0.00000  Uiso   1.00
C346   C     0.44795   0.16485   0.08846   0.00000  Uiso   1.00
C347   C     0.47920   0.13381   0.08854   0.00000  Uiso   1.00
N348   N     0.46680   0.09573   0.09019   0.00000  Uiso   1.00
O349   O     0.45583   0.20073   0.08702   0.00000  Uiso   1.00
O350   O     0.40780   0.15113   0.09018   0.00000  Uiso   1.00
C351   C    -0.05205   0.66485   0.08846   0.00000  Uiso   1.00
C352   C    -0.02080   0.63381   0.08854   0.00000  Uiso   1.00
N353   N    -0.03320   0.59573   0.09019   0.00000  Uiso   1.00
O354   O    -0.04417   0.70073   0.08702   0.00000  Uiso   1.00
O355   O    -0.09220   0.65113   0.09018   0.00000  Uiso   1.00
C356   C    -0.05205   0.16485   0.58846   0.00000  Uiso   1.00
C357   C    -0.02080   0.13381   0.58854   0.00000  Uiso   1.00
N358   N    -0.03320   0.09573   0.59019   0.00000  Uiso   1.00
O359   O    -0.04417   0.20073   0.58702   0.00000  Uiso   1.00
O360   O    -0.09220   0.15113   0.59018   0.00000  Uiso   1.00
C361   C     0.44795   0.33515   0.41154   0.00000  Uiso   1.00
C362   C     0.47920   0.36619   0.41146   0.00000  Uiso   1.00
N363   N     0.46680   0.40427   0.40981   0.00000  Uiso   1.00
O364   O     0.45583   0.29927   0.41298   0.00000  Uiso   1.00
O365   O     0.40780   0.34887   0.40982   0.00000  Uiso   1.00
C366   C     0.44795  -0.16485  -0.08846   0.00000  Uiso   1.00
C367   C     0.47920  -0.13381  -0.08854   0.00000  Uiso   1.00
N368   N     0.46680  -0.09573  -0.09019   0.00000  Uiso   1.00
O369   O     0.45583  -0.20073  -0.08702   0.00000  Uiso   1.00
O370   O     0.40780  -0.15113  -0.09018   0.00000  Uiso   1.00
C371   C    -0.05205   0.33515  -0.08846   0.00000  Uiso   1.00
C372   C    -0.02080   0.36619  -0.08854   0.00000  Uiso   1.00
N373   N    -0.03320   0.40427  -0.09019   0.00000  Uiso   1.00
O374   O    -0.04417   0.29927  -0.08702   0.00000  Uiso   1.00
O375   O    -0.09220   0.34887  -0.09018   0.00000  Uiso   1.00
C376   C    -0.05205  -0.16485   0.41154   0.00000  Uiso   1.00
C377   C    -0.02080  -0.13381   0.41146   0.00000  Uiso   1.00
N378   N    -0.03320  -0.09573   0.40981   0.00000  Uiso   1.00
O379   O    -0.04417  -0.20073   0.41298   0.00000  Uiso   1.00
O380   O    -0.09220  -0.15113   0.40982   0.00000  Uiso   1.00
C381   C     0.55205   0.33515   0.58846   0.00000  Uiso   1.00
C382   C     0.52080   0.36619   0.58854   0.00000  Uiso   1.00
N383   N     0.53320   0.40427   0.59019   0.00000  Uiso   1.00
O384   O     0.54417   0.29927   0.58702   0.00000  Uiso   1.00
O385   O     0.59220   0.34887   0.59018   0.00000  Uiso   1.00
C386   C     0.55205  -0.16485   0.08846   0.00000  Uiso   1.00
C387   C     0.52080  -0.13381   0.08854   0.00000  Uiso   1.00
N388   N     0.53320  -0.09573   0.09019   0.00000  Uiso   1.00
O389   O     0.54417  -0.20073   0.08702   0.00000  Uiso   1.00
O390   O     0.59220  -0.15113   0.09018   0.00000  Uiso   1.00
C391   C     0.05205   0.33515   0.08846   0.00000  Uiso   1.00
C392   C     0.02080   0.36619   0.08854   0.00000  Uiso   1.00
N393   N     0.03320   0.40427   0.09019   0.00000  Uiso   1.00
O394   O     0.04417   0.29927   0.08702   0.00000  Uiso   1.00
O395   O     0.09220   0.34887   0.09018   0.00000  Uiso   1.00
C396   C     0.05205  -0.16485   0.58846   0.00000  Uiso   1.00
C397   C     0.02080  -0.13381   0.58854   0.00000  Uiso   1.00
N398   N     0.03320  -0.09573   0.59019   0.00000  Uiso   1.00
O399   O     0.04417  -0.20073   0.58702   0.00000  Uiso   1.00
O400   O     0.09220  -0.15113   0.59018   0.00000  Uiso   1.00
C401   C     0.66485   0.58846   0.44795   0.00000  Uiso   1.00
C402   C     0.63381   0.58854   0.47920   0.00000  Uiso   1.00
N403   N     0.59573   0.59019   0.46680   0.00000  Uiso   1.00
O404   O     0.70073   0.58702   0.45583   0.00000  Uiso   1.00
O405   O     0.65113   0.59018   0.40780   0.00000  Uiso   1.00
C406   C     0.66485   0.08846  -0.05205   0.00000  Uiso   1.00
C407   C     0.63381   0.08854  -0.02080   0.00000  Uiso   1.00
N408   N     0.59573   0.09019  -0.03320   0.00000  Uiso   1.00
O409   O     0.70073   0.08702  -0.04417   0.00000  Uiso   1.00
O410   O     0.65113   0.09018  -0.09220   0.00000  Uiso   1.00
C411   C     0.16485   0.58846  -0.05205   0.00000  Uiso   1.00
C412   C     0.13381   0.58854  -0.02080   0.00000  Uiso   1.00
N413   N     0.09572   0.59019  -0.03320   0.00000  Uiso   1.00
O414   O     0.20073   0.58702  -0.04417   0.00000  Uiso   1.00
O415   O     0.15113   0.59018  -0.09220   0.00000  Uiso   1.00
C416   C     0.16485   0.08846   0.44795   0.00000  Uiso   1.00
C417   C     0.13381   0.08854   0.47920   0.00000  Uiso   1.00
N418   N     0.09573   0.09019   0.46680   0.00000  Uiso   1.00
O419   O     0.20073   0.08702   0.45583   0.00000  Uiso   1.00
O420   O     0.15113   0.09018   0.40780   0.00000  Uiso   1.00
C421   C     0.66485   0.41154   0.55205   0.00000  Uiso   1.00
C422   C     0.63381   0.41146   0.52080   0.00000  Uiso   1.00
N423   N     0.59573   0.40981   0.53320   0.00000  Uiso   1.00
O424   O     0.70073   0.41298   0.54417   0.00000  Uiso   1.00
O425   O     0.65113   0.40982   0.59220   0.00000  Uiso   1.00
C426   C     0.66485  -0.08846   0.05205   0.00000  Uiso   1.00
C427   C     0.63381  -0.08854   0.02080   0.00000  Uiso   1.00
N428   N     0.59573  -0.09019   0.03320   0.00000  Uiso   1.00
O429   O     0.70073  -0.08702   0.04417   0.00000  Uiso   1.00
O430   O     0.65113  -0.09018   0.09220   0.00000  Uiso   1.00
C431   C     0.16485   0.41154   0.05205   0.00000  Uiso   1.00
C432   C     0.13381   0.41146   0.02080   0.00000  Uiso   1.00
N433   N     0.09573   0.40981   0.03320   0.00000  Uiso   1.00
O434   O     0.20073   0.41298   0.04417   0.00000  Uiso   1.00
O435   O     0.15113   0.40982   0.09220   0.00000  Uiso   1.00
C436   C     0.16485  -0.08846   0.55205   0.00000  Uiso   1.00
C437   C     0.13381  -0.08854   0.52080   0.00000  Uiso   1.00
N438   N     0.09573  -0.09019   0.53320   0.00000  Uiso   1.00
O439   O     0.20073  -0.08702   0.54417   0.00000  Uiso   1.00
O440   O     0.15113  -0.09018   0.59220   0.00000  Uiso   1.00
C441   C     0.33515   0.58846   0.55205   0.00000  Uiso   1.00
C442   C     0.36619   0.58854   0.52080   0.00000  Uiso   1.00
N443   N     0.40427   0.59019   0.53320   0.00000  Uiso   1.00
O444   O     0.29927   0.58702   0.54417   0.00000  Uiso   1.00
O445   O     0.34887   0.59018   0.59220   0.00000  Uiso   1.00
C446   C     0.33515   0.08846   0.05205   0.00000  Uiso   1.00
C447   C     0.36619   0.08854   0.02080   0.00000  Uiso   1.00
N448   N     0.40427   0.09019   0.03320   0.00000  Uiso   1.00
O449   O     0.29927   0.08702   0.04417   0.00000  Uiso   1.00
O450   O     0.34887   0.09018   0.09220   0.00000  Uiso   1.00
C451   C    -0.16485   0.58846   0.05205   0.00000  Uiso   1.00
C452   C    -0.13381   0.58854   0.02080   0.00000  Uiso   1.00
N453   N    -0.09572   0.59019   0.03320   0.00000  Uiso   1.00
O454   O    -0.20073   0.58702   0.04417   0.00000  Uiso   1.00
O455   O    -0.15113   0.59018   0.09220   0.00000  Uiso   1.00
C456   C    -0.16485   0.08846   0.55205   0.00000  Uiso   1.00
C457   C    -0.13381   0.08854   0.52080   0.00000  Uiso   1.00
N458   N    -0.09573   0.09019   0.53320   0.00000  Uiso   1.00
O459   O    -0.20073   0.08702   0.54417   0.00000  Uiso   1.00
O460   O    -0.15113   0.09018   0.59220   0.00000  Uiso   1.00
C461   C     0.33515   0.41154   0.44795   0.00000  Uiso   1.00
C462   C     0.36619   0.41146   0.47920   0.00000  Uiso   1.00
N463   N     0.40427   0.40981   0.46680   0.00000  Uiso   1.00
O464   O     0.29927   0.41298   0.45583   0.00000  Uiso   1.00
O465   O     0.34887   0.40982   0.40780   0.00000  Uiso   1.00
C466   C     0.33515  -0.08846  -0.05205   0.00000  Uiso   1.00
C467   C     0.36619  -0.08854  -0.02080   0.00000  Uiso   1.00
N468   N     0.40427  -0.09019  -0.03320   0.00000  Uiso   1.00
O469   O     0.29927  -0.08702  -0.04417   0.00000  Uiso   1.00
O470   O     0.34887  -0.09018  -0.09220   0.00000  Uiso   1.00
C471   C    -0.16485   0.41154  -0.05205   0.00000  Uiso   1.00
C472   C    -0.13381   0.41146  -0.02080   0.00000  Uiso   1.00
N473   N    -0.09573   0.40981  -0.03320   0.00000  Uiso   1.00
O474   O    -0.20073   0.41298  -0.04417   0.00000  Uiso   1.00
O475   O    -0.15113   0.40982  -0.09220   0.00000  Uiso   1.00
C476   C    -0.16485  -0.08846   0.44795   0.00000  Uiso   1.00
C477   C    -0.13381  -0.08854   0.47920   0.00000  Uiso   1.00
N478   N    -0.09573  -0.09019   0.46680   0.00000  Uiso   1.00
O479   O    -0.20073  -0.08702   0.45583   0.00000  Uiso   1.00
O480   O    -0.15113  -0.09018   0.40780   0.00000  Uiso   1.00
C481   C    -0.05205  -0.08845  -0.16484   0.00000  Uiso   1.00
C482   C    -0.02080  -0.08854  -0.13380   0.00000  Uiso   1.00
N483   N    -0.03319  -0.09018  -0.09572   0.00000  Uiso   1.00
O484   O    -0.04417  -0.08700  -0.20073   0.00000  Uiso   1.00
O485   O    -0.09220  -0.09017  -0.15112   0.00000  Uiso   1.00
C486   C    -0.05205   0.41155   0.33516   0.00000  Uiso   1.00
C487   C    -0.02080   0.41146   0.36620   0.00000  Uiso   1.00
N488   N    -0.03319   0.40982   0.40428   0.00000  Uiso   1.00
O489   O    -0.04417   0.41300   0.29927   0.00000  Uiso   1.00
O490   O    -0.09220   0.40983   0.34888   0.00000  Uiso   1.00
C491   C     0.44795  -0.08845   0.33516   0.00000  Uiso   1.00
C492   C     0.47920  -0.08854   0.36620   0.00000  Uiso   1.00
N493   N     0.46681  -0.09018   0.40428   0.00000  Uiso   1.00
O494   O     0.45583  -0.08700   0.29927   0.00000  Uiso   1.00
O495   O     0.40780  -0.09017   0.34888   0.00000  Uiso   1.00
C496   C     0.44795   0.41155  -0.16484   0.00000  Uiso   1.00
C497   C     0.47920   0.41146  -0.13380   0.00000  Uiso   1.00
N498   N     0.46681   0.40982  -0.09572   0.00000  Uiso   1.00
O499   O     0.45583   0.41300  -0.20073   0.00000  Uiso   1.00
O500   O     0.40780   0.40983  -0.15112   0.00000  Uiso   1.00
C501   C     0.05205   0.08845  -0.16484   0.00000  Uiso   1.00
C502   C     0.02080   0.08854  -0.13380   0.00000  Uiso   1.00
N503   N     0.03319   0.09018  -0.09572   0.00000  Uiso   1.00
O504   O     0.04417   0.08700  -0.20073   0.00000  Uiso   1.00
O505   O     0.09220   0.09017  -0.15112   0.00000  Uiso   1.00
C506   C     0.05205   0.58845   0.33516   0.00000  Uiso   1.00
C507   C     0.02080   0.58854   0.36620   0.00000  Uiso   1.00
N508   N     0.03319   0.59018   0.40428   0.00000  Uiso   1.00
O509   O     0.04417   0.58700   0.29927   0.00000  Uiso   1.00
O510   O     0.09220   0.59017   0.34888   0.00000  Uiso   1.00
C511   C     0.55205   0.08845   0.33516   0.00000  Uiso   1.00
C512   C     0.52080   0.08854   0.36620   0.00000  Uiso   1.00
N513   N     0.53319   0.09018   0.40428   0.00000  Uiso   1.00
O514   O     0.54417   0.08700   0.29927   0.00000  Uiso   1.00
O515   O     0.59220   0.09017   0.34888   0.00000  Uiso   1.00
C516   C     0.55205   0.58845  -0.16484   0.00000  Uiso   1.00
C517   C     0.52080   0.58854  -0.13380   0.00000  Uiso   1.00
N518   N     0.53319   0.59018  -0.09572   0.00000  Uiso   1.00
O519   O     0.54417   0.58700  -0.20073   0.00000  Uiso   1.00
O520   O     0.59220   0.59017  -0.15112   0.00000  Uiso   1.00
C521   C     0.05205  -0.08845   0.16484   0.00000  Uiso   1.00
C522   C     0.02080  -0.08854   0.13380   0.00000  Uiso   1.00
N523   N     0.03319  -0.09018   0.09572   0.00000  Uiso   1.00
O524   O     0.04417  -0.08700   0.20073   0.00000  Uiso   1.00
O525   O     0.09220  -0.09017   0.15112   0.00000  Uiso   1.00
C526   C     0.05205   0.41155   0.66484   0.00000  Uiso   1.00
C527   C     0.02080   0.41146   0.63380   0.00000  Uiso   1.00
N528   N     0.03319   0.40982   0.59572   0.00000  Uiso   1.00
O529   O     0.04417   0.41300   0.70073   0.00000  Uiso   1.00
O530   O     0.09220   0.40983   0.65112   0.00000  Uiso   1.00
C531   C     0.55205  -0.08845   0.66484   0.00000  Uiso   1.00
C532   C     0.52080  -0.08854   0.63380   0.00000  Uiso   1.00
N533   N     0.53319  -0.09018   0.59572   0.00000  Uiso   1.00
O534   O     0.54417  -0.08700   0.70073   0.00000  Uiso   1.00
O535   O     0.59220  -0.09017   0.65112   0.00000  Uiso   1.00
C536   C     0.55205   0.41155   0.16484   0.00000  Uiso   1.00
C537   C     0.52080   0.41146   0.13381   0.00000  Uiso   1.00
N538   N     0.53319   0.40982   0.09572   0.00000  Uiso   1.00
O539   O     0.54417   0.41300   0.20073   0.00000  Uiso   1.00
O540   O     0.59220   0.40983   0.15112   0.00000  Uiso   1.00
C541   C    -0.05205   0.08845   0.16484   0.00000  Uiso   1.00
C542   C    -0.02080   0.08854   0.13380   0.00000  Uiso   1.00
N543   N    -0.03319   0.09018   0.09572   0.00000  Uiso   1.00
O544   O    -0.04417   0.08700   0.20073   0.00000  Uiso   1.00
O545   O    -0.09220   0.09017   0.15112   0.00000  Uiso   1.00
C546   C    -0.05205   0.58845   0.66484   0.00000  Uiso   1.00
C547   C    -0.02080   0.58854   0.63380   0.00000  Uiso   1.00
N548   N    -0.03319   0.59018   0.59572   0.00000  Uiso   1.00
O549   O    -0.04417   0.58700   0.70073   0.00000  Uiso   1.00
O550   O    -0.09220   0.59017   0.65112   0.00000  Uiso   1.00
C551   C     0.44795   0.08845   0.66484   0.00000  Uiso   1.00
C552   C     0.47920   0.08854   0.63380   0.00000  Uiso   1.00
N553   N     0.46681   0.09018   0.59572   0.00000  Uiso   1.00
O554   O     0.45583   0.08700   0.70073   0.00000  Uiso   1.00
O555   O     0.40780   0.09017   0.65112   0.00000  Uiso   1.00
C556   C     0.44795   0.58845   0.16484   0.00000  Uiso   1.00
C557   C     0.47920   0.58854   0.13380   0.00000  Uiso   1.00
N558   N     0.46681   0.59018   0.09572   0.00000  Uiso   1.00
O559   O     0.45583   0.58700   0.20073   0.00000  Uiso   1.00
O560   O     0.40780   0.59017   0.15112   0.00000  Uiso   1.00
C561   C    -0.16484  -0.05205  -0.08845   0.00000  Uiso   1.00
C562   C    -0.13380  -0.02080  -0.08854   0.00000  Uiso   1.00
N563   N    -0.09572  -0.03319  -0.09018   0.00000  Uiso   1.00
O564   O    -0.20073  -0.04417  -0.08700   0.00000  Uiso   1.00
O565   O    -0.15112  -0.09220  -0.09017   0.00000  Uiso   1.00
C566   C    -0.16484   0.44795   0.41155   0.00000  Uiso   1.00
C567   C    -0.13380   0.47920   0.41146   0.00000  Uiso   1.00
N568   N    -0.09572   0.46681   0.40982   0.00000  Uiso   1.00
O569   O    -0.20073   0.45583   0.41300   0.00000  Uiso   1.00
O570   O    -0.15112   0.40780   0.40983   0.00000  Uiso   1.00
C571   C     0.33516  -0.05205   0.41155   0.00000  Uiso   1.00
C572   C     0.36620  -0.02080   0.41146   0.00000  Uiso   1.00
N573   N     0.40428  -0.03319   0.40982   0.00000  Uiso   1.00
O574   O     0.29927  -0.04417   0.41300   0.00000  Uiso   1.00
O575   O     0.34888  -0.09220   0.40983   0.00000  Uiso   1.00
C576   C     0.33516   0.44795  -0.08845   0.00000  Uiso   1.00
C577   C     0.36620   0.47920  -0.08854   0.00000  Uiso   1.00
N578   N     0.40428   0.46681  -0.09018   0.00000  Uiso   1.00
O579   O     0.29927   0.45583  -0.08700   0.00000  Uiso   1.00
O580   O     0.34888   0.40780  -0.09017   0.00000  Uiso   1.00
C581   C    -0.16484   0.05205   0.08845   0.00000  Uiso   1.00
C582   C    -0.13380   0.02080   0.08854   0.00000  Uiso   1.00
N583   N    -0.09572   0.03319   0.09018   0.00000  Uiso   1.00
O584   O    -0.20073   0.04417   0.08700   0.00000  Uiso   1.00
O585   O    -0.15112   0.09220   0.09017   0.00000  Uiso   1.00
C586   C    -0.16484   0.55205   0.58845   0.00000  Uiso   1.00
C587   C    -0.13381   0.52080   0.58854   0.00000  Uiso   1.00
N588   N    -0.09572   0.53319   0.59018   0.00000  Uiso   1.00
O589   O    -0.20073   0.54417   0.58700   0.00000  Uiso   1.00
O590   O    -0.15112   0.59220   0.59017   0.00000  Uiso   1.00
C591   C     0.33516   0.05205   0.58845   0.00000  Uiso   1.00
C592   C     0.36620   0.02080   0.58854   0.00000  Uiso   1.00
N593   N     0.40428   0.03319   0.59018   0.00000  Uiso   1.00
O594   O     0.29927   0.04417   0.58700   0.00000  Uiso   1.00
O595   O     0.34888   0.09220   0.59017   0.00000  Uiso   1.00
C596   C     0.33516   0.55205   0.08845   0.00000  Uiso   1.00
C597   C     0.36620   0.52080   0.08854   0.00000  Uiso   1.00
N598   N     0.40428   0.53319   0.09018   0.00000  Uiso   1.00
O599   O     0.29927   0.54417   0.08700   0.00000  Uiso   1.00
O600   O     0.34888   0.59220   0.09017   0.00000  Uiso   1.00
C601   C     0.16484   0.05205  -0.08845   0.00000  Uiso   1.00
C602   C     0.13380   0.02080  -0.08854   0.00000  Uiso   1.00
N603   N     0.09572   0.03319  -0.09018   0.00000  Uiso   1.00
O604   O     0.20073   0.04417  -0.08700   0.00000  Uiso   1.00
O605   O     0.15112   0.09220  -0.09017   0.00000  Uiso   1.00
C606   C     0.16484   0.55205   0.41155   0.00000  Uiso   1.00
C607   C     0.13380   0.52080   0.41146   0.00000  Uiso   1.00
N608   N     0.09572   0.53319   0.40982   0.00000  Uiso   1.00
O609   O     0.20073   0.54417   0.41300   0.00000  Uiso   1.00
O610   O     0.15112   0.59220   0.40983   0.00000  Uiso   1.00
C611   C     0.66484   0.05205   0.41155   0.00000  Uiso   1.00
C612   C     0.63380   0.02080   0.41146   0.00000  Uiso   1.00
N613   N     0.59572   0.03319   0.40982   0.00000  Uiso   1.00
O614   O     0.70073   0.04417   0.41300   0.00000  Uiso   1.00
O615   O     0.65112   0.09220   0.40983   0.00000  Uiso   1.00
C616   C     0.66484   0.55205  -0.08845   0.00000  Uiso   1.00
C617   C     0.63380   0.52080  -0.08854   0.00000  Uiso   1.00
N618   N     0.59572   0.53319  -0.09018   0.00000  Uiso   1.00
O619   O     0.70073   0.54417  -0.08700   0.00000  Uiso   1.00
O620   O     0.65112   0.59220  -0.09017   0.00000  Uiso   1.00
C621   C     0.16484  -0.05205   0.08845   0.00000  Uiso   1.00
C622   C     0.13380  -0.02080   0.08854   0.00000  Uiso   1.00
N623   N     0.09572  -0.03319   0.09018   0.00000  Uiso   1.00
O624   O     0.20073  -0.04417   0.08700   0.00000  Uiso   1.00
O625   O     0.15112  -0.09220   0.09017   0.00000  Uiso   1.00
C626   C     0.16484   0.44795   0.58845   0.00000  Uiso   1.00
C627   C     0.13380   0.47920   0.58854   0.00000  Uiso   1.00
N628   N     0.09572   0.46681   0.59018   0.00000  Uiso   1.00
O629   O     0.20073   0.45583   0.58700   0.00000  Uiso   1.00
O630   O     0.15112   0.40780   0.59017   0.00000  Uiso   1.00
C631   C     0.66484  -0.05205   0.58845   0.00000  Uiso   1.00
C632   C     0.63380  -0.02080   0.58854   0.00000  Uiso   1.00
N633   N     0.59572  -0.03319   0.59018   0.00000  Uiso   1.00
O634   O     0.70073  -0.04417   0.58700   0.00000  Uiso   1.00
O635   O     0.65112  -0.09220   0.59017   0.00000  Uiso   1.00
C636   C     0.66484   0.44795   0.08845   0.00000  Uiso   1.00
C637   C     0.63380   0.47920   0.08854   0.00000  Uiso   1.00
N638   N     0.59572   0.46681   0.09018   0.00000  Uiso   1.00
O639   O     0.70073   0.45583   0.08700   0.00000  Uiso   1.00
O640   O     0.65112   0.40780   0.09017   0.00000  Uiso   1.00
C641   C    -0.08845  -0.16484  -0.05205   0.00000  Uiso   1.00
C642   C    -0.08854  -0.13380  -0.02080   0.00000  Uiso   1.00
N643   N    -0.09018  -0.09572  -0.03319   0.00000  Uiso   1.00
O644   O    -0.08700  -0.20073  -0.04417   0.00000  Uiso   1.00
O645   O    -0.09017  -0.15112  -0.09220   0.00000  Uiso   1.00
C646   C    -0.08845   0.33516   0.44795   0.00000  Uiso   1.00
C647   C    -0.08854   0.36620   0.47920   0.00000  Uiso   1.00
N648   N    -0.09018   0.40428   0.46681   0.00000  Uiso   1.00
O649   O    -0.08700   0.29927   0.45583   0.00000  Uiso   1.00
O650   O    -0.09017   0.34888   0.40780   0.00000  Uiso   1.00
C651   C     0.41155  -0.16484   0.44795   0.00000  Uiso   1.00
C652   C     0.41146  -0.13380   0.47920   0.00000  Uiso   1.00
N653   N     0.40982  -0.09572   0.46681   0.00000  Uiso   1.00
O654   O     0.41300  -0.20073   0.45583   0.00000  Uiso   1.00
O655   O     0.40983  -0.15112   0.40780   0.00000  Uiso   1.00
C656   C     0.41155   0.33516  -0.05205   0.00000  Uiso   1.00
C657   C     0.41146   0.36620  -0.02080   0.00000  Uiso   1.00
N658   N     0.40982   0.40428  -0.03319   0.00000  Uiso   1.00
O659   O     0.41300   0.29927  -0.04417   0.00000  Uiso   1.00
O660   O     0.40983   0.34888  -0.09220   0.00000  Uiso   1.00
C661   C     0.08845  -0.16484   0.05205   0.00000  Uiso   1.00
C662   C     0.08854  -0.13380   0.02080   0.00000  Uiso   1.00
N663   N     0.09018  -0.09572   0.03319   0.00000  Uiso   1.00
O664   O     0.08700  -0.20073   0.04417   0.00000  Uiso   1.00
O665   O     0.09017  -0.15112   0.09220   0.00000  Uiso   1.00
C666   C     0.08845   0.33516   0.55205   0.00000  Uiso   1.00
C667   C     0.08854   0.36620   0.52080   0.00000  Uiso   1.00
N668   N     0.09018   0.40428   0.53319   0.00000  Uiso   1.00
O669   O     0.08700   0.29927   0.54417   0.00000  Uiso   1.00
O670   O     0.09017   0.34888   0.59220   0.00000  Uiso   1.00
C671   C     0.58845  -0.16484   0.55205   0.00000  Uiso   1.00
C672   C     0.58854  -0.13380   0.52080   0.00000  Uiso   1.00
N673   N     0.59018  -0.09572   0.53319   0.00000  Uiso   1.00
O674   O     0.58700  -0.20073   0.54417   0.00000  Uiso   1.00
O675   O     0.59017  -0.15112   0.59220   0.00000  Uiso   1.00
C676   C     0.58845   0.33516   0.05205   0.00000  Uiso   1.00
C677   C     0.58854   0.36620   0.02080   0.00000  Uiso   1.00
N678   N     0.59018   0.40428   0.03319   0.00000  Uiso   1.00
O679   O     0.58700   0.29927   0.04417   0.00000  Uiso   1.00
O680   O     0.59017   0.34888   0.09220   0.00000  Uiso   1.00
C681   C    -0.08845   0.16484   0.05205   0.00000  Uiso   1.00
C682   C    -0.08854   0.13380   0.02080   0.00000  Uiso   1.00
N683   N    -0.09018   0.09572   0.03319   0.00000  Uiso   1.00
O684   O    -0.08700   0.20073   0.04417   0.00000  Uiso   1.00
O685   O    -0.09017   0.15112   0.09220   0.00000  Uiso   1.00
C686   C    -0.08845   0.66484   0.55205   0.00000  Uiso   1.00
C687   C    -0.08854   0.63380   0.52080   0.00000  Uiso   1.00
N688   N    -0.09018   0.59572   0.53319   0.00000  Uiso   1.00
O689   O    -0.08700   0.70073   0.54417   0.00000  Uiso   1.00
O690   O    -0.09017   0.65112   0.59220   0.00000  Uiso   1.00
C691   C     0.41155   0.16484   0.55205   0.00000  Uiso   1.00
C692   C     0.41146   0.13380   0.52080   0.00000  Uiso   1.00
N693   N     0.40982   0.09572   0.53319   0.00000  Uiso   1.00
O694   O     0.41300   0.20073   0.54417   0.00000  Uiso   1.00
O695   O     0.40983   0.15112   0.59220   0.00000  Uiso   1.00
C696   C     0.41155   0.66484   0.05205   0.00000  Uiso   1.00
C697   C     0.41146   0.63380   0.02080   0.00000  Uiso   1.00
N698   N     0.40982   0.59572   0.03319   0.00000  Uiso   1.00
O699   O     0.41300   0.70073   0.04417   0.00000  Uiso   1.00
O700   O     0.40983   0.65112   0.09220   0.00000  Uiso   1.00
C701   C     0.08845   0.16484  -0.05205   0.00000  Uiso   1.00
C702   C     0.08854   0.13380  -0.02080   0.00000  Uiso   1.00
N703   N     0.09018   0.09572  -0.03319   0.00000  Uiso   1.00
O704   O     0.08700   0.20073  -0.04417   0.00000  Uiso   1.00
O705   O     0.09017   0.15112  -0.09220   0.00000  Uiso   1.00
C706   C     0.08845   0.66484   0.44795   0.00000  Uiso   1.00
C707   C     0.08854   0.63380   0.47920   0.00000  Uiso   1.00
N708   N     0.09018   0.59572   0.46681   0.00000  Uiso   1.00
O709   O     0.08700   0.70073   0.45583   0.00000  Uiso   1.00
O710   O     0.09017   0.65112   0.40780   0.00000  Uiso   1.00
C711   C     0.58845   0.16484   0.44795   0.00000  Uiso   1.00
C712   C     0.58854   0.13380   0.47920   0.00000  Uiso   1.00
N713   N     0.59018   0.09572   0.46681   0.00000  Uiso   1.00
O714   O     0.58700   0.20073   0.45583   0.00000  Uiso   1.00
O715   O     0.59017   0.15112   0.40780   0.00000  Uiso   1.00
C716   C     0.58845   0.66484  -0.05205   0.00000  Uiso   1.00
C717   C     0.58854   0.63380  -0.02080   0.00000  Uiso   1.00
N718   N     0.59018   0.59572  -0.03319   0.00000  Uiso   1.00
O719   O     0.58700   0.70073  -0.04417   0.00000  Uiso   1.00
O720   O     0.59017   0.65112  -0.09220   0.00000  Uiso   1.00
C721   C     0.41155   0.44795   0.66484   0.00000  Uiso   1.00
C722   C     0.41146   0.47920   0.63380   0.00000  Uiso   1.00
N723   N     0.40982   0.46681   0.59572   0.00000  Uiso   1.00
O724   O     0.41300   0.45583   0.70073   0.00000  Uiso   1.00
O725   O     0.40983   0.40780   0.65112   0.00000  Uiso   1.00
C726   C     0.41155  -0.05205   0.16484   0.00000  Uiso   1.00
C727   C     0.41146  -0.02080   0.13380   0.00000  Uiso   1.00
N728   N     0.40982  -0.03319   0.09572   0.00000  Uiso   1.00
O729   O     0.41300  -0.04417   0.20073   0.00000  Uiso   1.00
O730   O     0.40983  -0.09220   0.15112   0.00000  Uiso   1.00
C731   C    -0.08845   0.44795   0.16484   0.00000  Uiso   1.00
C732   C    -0.08854   0.47920   0.13380   0.00000  Uiso   1.00
N733   N    -0.09018   0.46681   0.09572   0.00000  Uiso   1.00
O734   O    -0.08700   0.45583   0.20073   0.00000  Uiso   1.00
O735   O    -0.09017   0.40780   0.15112   0.00000  Uiso   1.00
C736   C    -0.08845  -0.05205   0.66484   0.00000  Uiso   1.00
C737   C    -0.08854  -0.02080   0.63380   0.00000  Uiso   1.00
N738   N    -0.09018  -0.03319   0.59572   0.00000  Uiso   1.00
O739   O    -0.08700  -0.04417   0.70073   0.00000  Uiso   1.00
O740   O    -0.09017  -0.09220   0.65112   0.00000  Uiso   1.00
C741   C     0.58845   0.55205   0.66484   0.00000  Uiso   1.00
C742   C     0.58854   0.52080   0.63380   0.00000  Uiso   1.00
N743   N     0.59018   0.53319   0.59572   0.00000  Uiso   1.00
O744   O     0.58700   0.54417   0.70073   0.00000  Uiso   1.00
O745   O     0.59017   0.59220   0.65112   0.00000  Uiso   1.00
C746   C     0.58845   0.05205   0.16484   0.00000  Uiso   1.00
C747   C     0.58854   0.02080   0.13380   0.00000  Uiso   1.00
N748   N     0.59018   0.03319   0.09572   0.00000  Uiso   1.00
O749   O     0.58700   0.04417   0.20073   0.00000  Uiso   1.00
O750   O     0.59017   0.09220   0.15112   0.00000  Uiso   1.00
C751   C     0.08845   0.55205   0.16484   0.00000  Uiso   1.00
C752   C     0.08854   0.52080   0.13380   0.00000  Uiso   1.00
N753   N     0.09018   0.53319   0.09572   0.00000  Uiso   1.00
O754   O     0.08700   0.54417   0.20073   0.00000  Uiso   1.00
O755   O     0.09017   0.59220   0.15112   0.00000  Uiso   1.00
C756   C     0.08845   0.05205   0.66484   0.00000  Uiso   1.00
C757   C     0.08854   0.02080   0.63380   0.00000  Uiso   1.00
N758   N     0.09018   0.03319   0.59572   0.00000  Uiso   1.00
O759   O     0.08700   0.04417   0.70073   0.00000  Uiso   1.00
O760   O     0.09017   0.09220   0.65112   0.00000  Uiso   1.00
C761   C     0.41155   0.55205   0.33516   0.00000  Uiso   1.00
C762   C     0.41146   0.52080   0.36620   0.00000  Uiso   1.00
N763   N     0.40982   0.53319   0.40428   0.00000  Uiso   1.00
O764   O     0.41300   0.54417   0.29927   0.00000  Uiso   1.00
O765   O     0.40983   0.59220   0.34888   0.00000  Uiso   1.00
C766   C     0.41155   0.05205  -0.16484   0.00000  Uiso   1.00
C767   C     0.41146   0.02080  -0.13380   0.00000  Uiso   1.00
N768   N     0.40982   0.03319  -0.09572   0.00000  Uiso   1.00
O769   O     0.41300   0.04417  -0.20073   0.00000  Uiso   1.00
O770   O     0.40983   0.09220  -0.15112   0.00000  Uiso   1.00
C771   C    -0.08845   0.55205  -0.16484   0.00000  Uiso   1.00
C772   C    -0.08854   0.52080  -0.13380   0.00000  Uiso   1.00
N773   N    -0.09018   0.53319  -0.09572   0.00000  Uiso   1.00
O774   O    -0.08700   0.54417  -0.20073   0.00000  Uiso   1.00
O775   O    -0.09017   0.59220  -0.15112   0.00000  Uiso   1.00
C776   C    -0.08845   0.05205   0.33516   0.00000  Uiso   1.00
C777   C    -0.08854   0.02080   0.36620   0.00000  Uiso   1.00
N778   N    -0.09018   0.03319   0.40428   0.00000  Uiso   1.00
O779   O    -0.08700   0.04417   0.29927   0.00000  Uiso   1.00
O780   O    -0.09017   0.09220   0.34888   0.00000  Uiso   1.00
C781   C     0.58845   0.44795   0.33516   0.00000  Uiso   1.00
C782   C     0.58854   0.47920   0.36620   0.00000  Uiso   1.00
N783   N     0.59018   0.46681   0.40428   0.00000  Uiso   1.00
O784   O     0.58700   0.45583   0.29927   0.00000  Uiso   1.00
O785   O     0.59017   0.40780   0.34888   0.00000  Uiso   1.00
C786   C     0.58845  -0.05205  -0.16484   0.00000  Uiso   1.00
C787   C     0.58854  -0.02080  -0.13380   0.00000  Uiso   1.00
N788   N     0.59018  -0.03319  -0.09572   0.00000  Uiso   1.00
O789   O     0.58700  -0.04417  -0.20073   0.00000  Uiso   1.00
O790   O     0.59017  -0.09220  -0.15112   0.00000  Uiso   1.00
C791   C     0.08845   0.44795  -0.16484   0.00000  Uiso   1.00
C792   C     0.08854   0.47920  -0.13380   0.00000  Uiso   1.00
N793   N     0.09018   0.46681  -0.09572   0.00000  Uiso   1.00
O794   O     0.08700   0.45583  -0.20073   0.00000  Uiso   1.00
O795   O     0.09017   0.40780  -0.15112   0.00000  Uiso   1.00
C796   C     0.08845  -0.05205   0.33516   0.00000  Uiso   1.00
C797   C     0.08854  -0.02080   0.36620   0.00000  Uiso   1.00
N798   N     0.09018  -0.03319   0.40428   0.00000  Uiso   1.00
O799   O     0.08700  -0.04417   0.29927   0.00000  Uiso   1.00
O800   O     0.09017  -0.09220   0.34888   0.00000  Uiso   1.00
C801   C     0.44795   0.33516   0.58845   0.00000  Uiso   1.00
C802   C     0.47920   0.36620   0.58854   0.00000  Uiso   1.00
N803   N     0.46681   0.40428   0.59018   0.00000  Uiso   1.00
O804   O     0.45583   0.29927   0.58700   0.00000  Uiso   1.00
O805   O     0.40780   0.34888   0.59017   0.00000  Uiso   1.00
C806   C     0.44795  -0.16484   0.08845   0.00000  Uiso   1.00
C807   C     0.47920  -0.13380   0.08854   0.00000  Uiso   1.00
N808   N     0.46681  -0.09572   0.09018   0.00000  Uiso   1.00
O809   O     0.45583  -0.20073   0.08700   0.00000  Uiso   1.00
O810   O     0.40780  -0.15112   0.09017   0.00000  Uiso   1.00
C811   C    -0.05205   0.33516   0.08845   0.00000  Uiso   1.00
C812   C    -0.02080   0.36619   0.08854   0.00000  Uiso   1.00
N813   N    -0.03319   0.40428   0.09018   0.00000  Uiso   1.00
O814   O    -0.04417   0.29927   0.08700   0.00000  Uiso   1.00
O815   O    -0.09220   0.34888   0.09017   0.00000  Uiso   1.00
C816   C    -0.05205  -0.16484   0.58845   0.00000  Uiso   1.00
C817   C    -0.02080  -0.13380   0.58854   0.00000  Uiso   1.00
N818   N    -0.03319  -0.09572   0.59018   0.00000  Uiso   1.00
O819   O    -0.04417  -0.20073   0.58700   0.00000  Uiso   1.00
O820   O    -0.09220  -0.15112   0.59017   0.00000  Uiso   1.00
C821   C     0.55205   0.33516   0.41155   0.00000  Uiso   1.00
C822   C     0.52080   0.36620   0.41146   0.00000  Uiso   1.00
N823   N     0.53319   0.40428   0.40982   0.00000  Uiso   1.00
O824   O     0.54417   0.29927   0.41300   0.00000  Uiso   1.00
O825   O     0.59220   0.34888   0.40983   0.00000  Uiso   1.00
C826   C     0.55205  -0.16484  -0.08845   0.00000  Uiso   1.00
C827   C     0.52080  -0.13380  -0.08854   0.00000  Uiso   1.00
N828   N     0.53319  -0.09572  -0.09018   0.00000  Uiso   1.00
O829   O     0.54417  -0.20073  -0.08700   0.00000  Uiso   1.00
O830   O     0.59220  -0.15112  -0.09017   0.00000  Uiso   1.00
C831   C     0.05205   0.33516  -0.08845   0.00000  Uiso   1.00
C832   C     0.02080   0.36620  -0.08854   0.00000  Uiso   1.00
N833   N     0.03319   0.40428  -0.09018   0.00000  Uiso   1.00
O834   O     0.04417   0.29927  -0.08700   0.00000  Uiso   1.00
O835   O     0.09220   0.34888  -0.09017   0.00000  Uiso   1.00
C836   C     0.05205  -0.16484   0.41155   0.00000  Uiso   1.00
C837   C     0.02080  -0.13380   0.41146   0.00000  Uiso   1.00
N838   N     0.03319  -0.09572   0.40982   0.00000  Uiso   1.00
O839   O     0.04417  -0.20073   0.41300   0.00000  Uiso   1.00
O840   O     0.09220  -0.15112   0.40983   0.00000  Uiso   1.00
C841   C     0.55205   0.66484   0.58845   0.00000  Uiso   1.00
C842   C     0.52080   0.63380   0.58854   0.00000  Uiso   1.00
N843   N     0.53319   0.59572   0.59018   0.00000  Uiso   1.00
O844   O     0.54417   0.70073   0.58700   0.00000  Uiso   1.00
O845   O     0.59220   0.65112   0.59017   0.00000  Uiso   1.00
C846   C     0.55205   0.16484   0.08845   0.00000  Uiso   1.00
C847   C     0.52080   0.13380   0.08854   0.00000  Uiso   1.00
N848   N     0.53319   0.09572   0.09018   0.00000  Uiso   1.00
O849   O     0.54417   0.20073   0.08700   0.00000  Uiso   1.00
O850   O     0.59220   0.15112   0.09017   0.00000  Uiso   1.00
C851   C     0.05205   0.66484   0.08845   0.00000  Uiso   1.00
C852   C     0.02080   0.63380   0.08854   0.00000  Uiso   1.00
N853   N     0.03319   0.59572   0.09018   0.00000  Uiso   1.00
O854   O     0.04417   0.70073   0.08700   0.00000  Uiso   1.00
O855   O     0.09220   0.65112   0.09017   0.00000  Uiso   1.00
C856   C     0.05205   0.16484   0.58845   0.00000  Uiso   1.00
C857   C     0.02080   0.13380   0.58854   0.00000  Uiso   1.00
N858   N     0.03319   0.09572   0.59018   0.00000  Uiso   1.00
O859   O     0.04417   0.20073   0.58700   0.00000  Uiso   1.00
O860   O     0.09220   0.15112   0.59017   0.00000  Uiso   1.00
C861   C     0.44795   0.66484   0.41155   0.00000  Uiso   1.00
C862   C     0.47920   0.63380   0.41146   0.00000  Uiso   1.00
N863   N     0.46681   0.59572   0.40982   0.00000  Uiso   1.00
O864   O     0.45583   0.70073   0.41300   0.00000  Uiso   1.00
O865   O     0.40780   0.65112   0.40983   0.00000  Uiso   1.00
C866   C     0.44795   0.16484  -0.08845   0.00000  Uiso   1.00
C867   C     0.47920   0.13380  -0.08854   0.00000  Uiso   1.00
N868   N     0.46681   0.09572  -0.09018   0.00000  Uiso   1.00
O869   O     0.45583   0.20073  -0.08700   0.00000  Uiso   1.00
O870   O     0.40780   0.15112  -0.09017   0.00000  Uiso   1.00
C871   C    -0.05205   0.66484  -0.08845   0.00000  Uiso   1.00
C872   C    -0.02080   0.63380  -0.08854   0.00000  Uiso   1.00
N873   N    -0.03319   0.59572  -0.09018   0.00000  Uiso   1.00
O874   O    -0.04417   0.70073  -0.08700   0.00000  Uiso   1.00
O875   O    -0.09220   0.65112  -0.09017   0.00000  Uiso   1.00
C876   C    -0.05205   0.16484   0.41155   0.00000  Uiso   1.00
C877   C    -0.02080   0.13380   0.41146   0.00000  Uiso   1.00
N878   N    -0.03319   0.09572   0.40982   0.00000  Uiso   1.00
O879   O    -0.04417   0.20073   0.41300   0.00000  Uiso   1.00
O880   O    -0.09220   0.15112   0.40983   0.00000  Uiso   1.00
C881   C     0.33516   0.41155   0.55205   0.00000  Uiso   1.00
C882   C     0.36620   0.41146   0.52080   0.00000  Uiso   1.00
N883   N     0.40428   0.40982   0.53319   0.00000  Uiso   1.00
O884   O     0.29927   0.41300   0.54417   0.00000  Uiso   1.00
O885   O     0.34888   0.40983   0.59220   0.00000  Uiso   1.00
C886   C     0.33516  -0.08845   0.05205   0.00000  Uiso   1.00
C887   C     0.36620  -0.08854   0.02080   0.00000  Uiso   1.00
N888   N     0.40428  -0.09018   0.03319   0.00000  Uiso   1.00
O889   O     0.29927  -0.08700   0.04417   0.00000  Uiso   1.00
O890   O     0.34888  -0.09017   0.09220   0.00000  Uiso   1.00
C891   C    -0.16484   0.41155   0.05205   0.00000  Uiso   1.00
C892   C    -0.13380   0.41146   0.02080   0.00000  Uiso   1.00
N893   N    -0.09572   0.40982   0.03319   0.00000  Uiso   1.00
O894   O    -0.20073   0.41300   0.04417   0.00000  Uiso   1.00
O895   O    -0.15112   0.40983   0.09220   0.00000  Uiso   1.00
C896   C    -0.16484  -0.08845   0.55205   0.00000  Uiso   1.00
C897   C    -0.13380  -0.08854   0.52080   0.00000  Uiso   1.00
N898   N    -0.09572  -0.09018   0.53319   0.00000  Uiso   1.00
O899   O    -0.20073  -0.08700   0.54417   0.00000  Uiso   1.00
O900   O    -0.15112  -0.09017   0.59220   0.00000  Uiso   1.00
C901   C     0.33516   0.58845   0.44795   0.00000  Uiso   1.00
C902   C     0.36620   0.58854   0.47920   0.00000  Uiso   1.00
N903   N     0.40428   0.59018   0.46681   0.00000  Uiso   1.00
O904   O     0.29927   0.58700   0.45583   0.00000  Uiso   1.00
O905   O     0.34888   0.59017   0.40780   0.00000  Uiso   1.00
C906   C     0.33516   0.08845  -0.05205   0.00000  Uiso   1.00
C907   C     0.36620   0.08854  -0.02080   0.00000  Uiso   1.00
N908   N     0.40428   0.09018  -0.03319   0.00000  Uiso   1.00
O909   O     0.29927   0.08700  -0.04417   0.00000  Uiso   1.00
O910   O     0.34888   0.09017  -0.09220   0.00000  Uiso   1.00
C911   C    -0.16484   0.58845  -0.05205   0.00000  Uiso   1.00
C912   C    -0.13380   0.58854  -0.02080   0.00000  Uiso   1.00
N913   N    -0.09572   0.59018  -0.03319   0.00000  Uiso   1.00
O914   O    -0.20073   0.58700  -0.04417   0.00000  Uiso   1.00
O915   O    -0.15112   0.59017  -0.09220   0.00000  Uiso   1.00
C916   C    -0.16484   0.08845   0.44795   0.00000  Uiso   1.00
C917   C    -0.13380   0.08854   0.47920   0.00000  Uiso   1.00
N918   N    -0.09572   0.09018   0.46681   0.00000  Uiso   1.00
O919   O    -0.20073   0.08700   0.45583   0.00000  Uiso   1.00
O920   O    -0.15112   0.09017   0.40780   0.00000  Uiso   1.00
C921   C     0.66484   0.41155   0.44795   0.00000  Uiso   1.00
C922   C     0.63381   0.41146   0.47920   0.00000  Uiso   1.00
N923   N     0.59572   0.40982   0.46681   0.00000  Uiso   1.00
O924   O     0.70073   0.41300   0.45583   0.00000  Uiso   1.00
O925   O     0.65112   0.40983   0.40780   0.00000  Uiso   1.00
C926   C     0.66484  -0.08845  -0.05205   0.00000  Uiso   1.00
C927   C     0.63380  -0.08854  -0.02080   0.00000  Uiso   1.00
N928   N     0.59572  -0.09018  -0.03319   0.00000  Uiso   1.00
O929   O     0.70073  -0.08700  -0.04417   0.00000  Uiso   1.00
O930   O     0.65112  -0.09017  -0.09220   0.00000  Uiso   1.00
C931   C     0.16484   0.41155  -0.05205   0.00000  Uiso   1.00
C932   C     0.13380   0.41146  -0.02080   0.00000  Uiso   1.00
N933   N     0.09572   0.40982  -0.03319   0.00000  Uiso   1.00
O934   O     0.20073   0.41300  -0.04417   0.00000  Uiso   1.00
O935   O     0.15112   0.40983  -0.09220   0.00000  Uiso   1.00
C936   C     0.16484  -0.08845   0.44795   0.00000  Uiso   1.00
C937   C     0.13380  -0.08854   0.47920   0.00000  Uiso   1.00
N938   N     0.09572  -0.09018   0.46681   0.00000  Uiso   1.00
O939   O     0.20073  -0.08700   0.45583   0.00000  Uiso   1.00
O940   O     0.15112  -0.09017   0.40780   0.00000  Uiso   1.00
C941   C     0.66484   0.58845   0.55205   0.00000  Uiso   1.00
C942   C     0.63380   0.58854   0.52080   0.00000  Uiso   1.00
N943   N     0.59572   0.59018   0.53319   0.00000  Uiso   1.00
O944   O     0.70073   0.58700   0.54417   0.00000  Uiso   1.00
O945   O     0.65112   0.59017   0.59220   0.00000  Uiso   1.00
C946   C     0.66484   0.08845   0.05205   0.00000  Uiso   1.00
C947   C     0.63380   0.08854   0.02080   0.00000  Uiso   1.00
N948   N     0.59572   0.09018   0.03319   0.00000  Uiso   1.00
O949   O     0.70073   0.08700   0.04417   0.00000  Uiso   1.00
O950   O     0.65112   0.09017   0.09220   0.00000  Uiso   1.00
C951   C     0.16484   0.58845   0.05205   0.00000  Uiso   1.00
C952   C     0.13380   0.58854   0.02080   0.00000  Uiso   1.00
N953   N     0.09572   0.59018   0.03319   0.00000  Uiso   1.00
O954   O     0.20073   0.58700   0.04417   0.00000  Uiso   1.00
O955   O     0.15112   0.59017   0.09220   0.00000  Uiso   1.00
C956   C     0.16484   0.08845   0.55205   0.00000  Uiso   1.00
C957   C     0.13380   0.08854   0.52080   0.00000  Uiso   1.00
N958   N     0.09572   0.09018   0.53319   0.00000  Uiso   1.00
O959   O     0.20073   0.08700   0.54417   0.00000  Uiso   1.00
O960   O     0.15112   0.09017   0.59220   0.00000  Uiso   1.00
Cr961  Cr    0.09212   0.09212   0.09212   0.00000  Uiso   1.00
Cr962  Cr    0.09212   0.59212   0.59212   0.00000  Uiso   1.00
Cr963  Cr    0.59212   0.09212   0.59212   0.00000  Uiso   1.00
Cr964  Cr    0.59212   0.59212   0.09212   0.00000  Uiso   1.00
Cr965  Cr   -0.09212  -0.09212   0.09212   0.00000  Uiso   1.00
Cr966  Cr   -0.09212   0.40788   0.59212   0.00000  Uiso   1.00
Cr967  Cr    0.40788  -0.09212   0.59212   0.00000  Uiso   1.00
Cr968  Cr    0.40788   0.40788   0.09212   0.00000  Uiso   1.00
Cr969  Cr   -0.09212   0.09212  -0.09212   0.00000  Uiso   1.00
Cr970  Cr   -0.09212   0.59212   0.40788   0.00000  Uiso   1.00
Cr971  Cr    0.40788   0.09212   0.40788   0.00000  Uiso   1.00
Cr972  Cr    0.40788   0.59212  -0.09212   0.00000  Uiso   1.00
Cr973  Cr    0.09212  -0.09212  -0.09212   0.00000  Uiso   1.00
Cr974  Cr    0.09212   0.40788   0.40788   0.00000  Uiso   1.00
Cr975  Cr    0.59212  -0.09212   0.40788   0.00000  Uiso   1.00
Cr976  Cr    0.59212   0.40788  -0.09212   0.00000  Uiso   1.00
Cr977  Cr    0.59212   0.59212   0.40788   0.00000  Uiso   1.00
Cr978  Cr    0.59212   0.09212  -0.09212   0.00000  Uiso   1.00
Cr979  Cr    0.09212   0.59212  -0.09212   0.00000  Uiso   1.00
Cr980  Cr    0.09212   0.09212   0.40788   0.00000  Uiso   1.00
Cr981  Cr    0.40788   0.40788   0.40788   0.00000  Uiso   1.00
Cr982  Cr    0.40788  -0.09212  -0.09212   0.00000  Uiso   1.00
Cr983  Cr   -0.09212   0.40788  -0.09212   0.00000  Uiso   1.00
Cr984  Cr   -0.09212  -0.09212   0.40788   0.00000  Uiso   1.00
Cr985  Cr    0.59212   0.40788   0.59212   0.00000  Uiso   1.00
Cr986  Cr    0.59212  -0.09212   0.09212   0.00000  Uiso   1.00
Cr987  Cr    0.09212   0.40788   0.09212   0.00000  Uiso   1.00
Cr988  Cr    0.09212  -0.09212   0.59212   0.00000  Uiso   1.00
Cr989  Cr    0.40788   0.59212   0.59212   0.00000  Uiso   1.00
Cr990  Cr    0.40788   0.09212   0.09212   0.00000  Uiso   1.00
Cr991  Cr   -0.09212   0.59212   0.09212   0.00000  Uiso   1.00
Cr992  Cr   -0.09212   0.09212   0.59212   0.00000  Uiso   1.00
Cr993  Cr   -0.09211  -0.09211  -0.09211   0.00000  Uiso   1.00
Cr994  Cr   -0.09211   0.40789   0.40789   0.00000  Uiso   1.00
Cr995  Cr    0.40789  -0.09211   0.40789   0.00000  Uiso   1.00
Cr996  Cr    0.40789   0.40789  -0.09211   0.00000  Uiso   1.00
Cr997  Cr    0.09211   0.09211  -0.09211   0.00000  Uiso   1.00
Cr998  Cr    0.09211   0.59211   0.40789   0.00000  Uiso   1.00
Cr999  Cr    0.59211   0.09211   0.40789   0.00000  Uiso   1.00
Cr1000 Cr    0.59211   0.59211  -0.09211   0.00000  Uiso   1.00
Cr1001 Cr    0.09211  -0.09211   0.09211   0.00000  Uiso   1.00
Cr1002 Cr    0.09211   0.40789   0.59211   0.00000  Uiso   1.00
Cr1003 Cr    0.59211  -0.09211   0.59211   0.00000  Uiso   1.00
Cr1004 Cr    0.59211   0.40789   0.09211   0.00000  Uiso   1.00
Cr1005 Cr   -0.09211   0.09211   0.09211   0.00000  Uiso   1.00
Cr1006 Cr   -0.09211   0.59211   0.59211   0.00000  Uiso   1.00
Cr1007 Cr    0.40789   0.09211   0.59211   0.00000  Uiso   1.00
Cr1008 Cr    0.40789   0.59211   0.09211   0.00000  Uiso   1.00
Cr1009 Cr    0.40789   0.40789   0.59211   0.00000  Uiso   1.00
Cr1010 Cr    0.40789  -0.09211   0.09211   0.00000  Uiso   1.00
Cr1011 Cr   -0.09211   0.40789   0.09211   0.00000  Uiso   1.00
Cr1012 Cr   -0.09211  -0.09211   0.59211   0.00000  Uiso   1.00
Cr1013 Cr    0.59211   0.59211   0.59211   0.00000  Uiso   1.00
Cr1014 Cr    0.59211   0.09211   0.09211   0.00000  Uiso   1.00
Cr1015 Cr    0.09211   0.59211   0.09211   0.00000  Uiso   1.00
Cr1016 Cr    0.09211   0.09211   0.59211   0.00000  Uiso   1.00
Cr1017 Cr    0.40789   0.59211   0.40789   0.00000  Uiso   1.00
Cr1018 Cr    0.40789   0.09211  -0.09211   0.00000  Uiso   1.00
Cr1019 Cr   -0.09211   0.59211  -0.09211   0.00000  Uiso   1.00
Cr1020 Cr   -0.09211   0.09211   0.40789   0.00000  Uiso   1.00
Cr1021 Cr    0.59211   0.40789   0.40789   0.00000  Uiso   1.00
Cr1022 Cr    0.59211  -0.09211  -0.09211   0.00000  Uiso   1.00
Cr1023 Cr    0.09211   0.40789  -0.09211   0.00000  Uiso   1.00
Cr1024 Cr    0.09211  -0.09211   0.40789   0.00000  Uiso   1.00
C1025  C     0.00001   0.09135   0.07215   0.00000  Uiso   1.00
C1026  C     0.00001   0.59135   0.57215   0.00000  Uiso   1.00
C1027  C     0.50001   0.09135   0.57215   0.00000  Uiso   1.00
C1028  C     0.50001   0.59135   0.07215   0.00000  Uiso   1.00
C1029  C    -0.00001  -0.09135   0.07215   0.00000  Uiso   1.00
C1030  C    -0.00001   0.40865   0.57215   0.00000  Uiso   1.00
C1031  C     0.49999  -0.09135   0.57215   0.00000  Uiso   1.00
C1032  C     0.49999   0.40865   0.07215   0.00000  Uiso   1.00
C1033  C    -0.00001   0.09135  -0.07215   0.00000  Uiso   1.00
C1034  C    -0.00001   0.59135   0.42785   0.00000  Uiso   1.00
C1035  C     0.49999   0.09135   0.42785   0.00000  Uiso   1.00
C1036  C     0.49999   0.59135  -0.07215   0.00000  Uiso   1.00
C1037  C     0.00001  -0.09135  -0.07215   0.00000  Uiso   1.00
C1038  C     0.00001   0.40865   0.42785   0.00000  Uiso   1.00
C1039  C     0.50001  -0.09135   0.42785   0.00000  Uiso   1.00
C1040  C     0.50001   0.40865  -0.07215   0.00000  Uiso   1.00
C1041  C     0.07215   0.00001   0.09135   0.00000  Uiso   1.00
C1042  C     0.07215   0.50001   0.59135   0.00000  Uiso   1.00
C1043  C     0.57215   0.00001   0.59135   0.00000  Uiso   1.00
C1044  C     0.57215   0.50001   0.09135   0.00000  Uiso   1.00
C1045  C     0.07215  -0.00001  -0.09135   0.00000  Uiso   1.00
C1046  C     0.07215   0.49999   0.40865   0.00000  Uiso   1.00
C1047  C     0.57215  -0.00001   0.40865   0.00000  Uiso   1.00
C1048  C     0.57215   0.49999  -0.09135   0.00000  Uiso   1.00
C1049  C    -0.07215  -0.00001   0.09135   0.00000  Uiso   1.00
C1050  C    -0.07215   0.49999   0.59135   0.00000  Uiso   1.00
C1051  C     0.42785  -0.00001   0.59135   0.00000  Uiso   1.00
C1052  C     0.42785   0.49999   0.09135   0.00000  Uiso   1.00
C1053  C    -0.07215   0.00001  -0.09135   0.00000  Uiso   1.00
C1054  C    -0.07215   0.50001   0.40865   0.00000  Uiso   1.00
C1055  C     0.42785   0.00001   0.40865   0.00000  Uiso   1.00
C1056  C     0.42785   0.50001  -0.09135   0.00000  Uiso   1.00
C1057  C     0.09135   0.07215   0.00001   0.00000  Uiso   1.00
C1058  C     0.09135   0.57215   0.50001   0.00000  Uiso   1.00
C1059  C     0.59135   0.07215   0.50001   0.00000  Uiso   1.00
C1060  C     0.59135   0.57215   0.00001   0.00000  Uiso   1.00
C1061  C    -0.09135   0.07215  -0.00001   0.00000  Uiso   1.00
C1062  C    -0.09135   0.57215   0.49999   0.00000  Uiso   1.00
C1063  C     0.40865   0.07215   0.49999   0.00000  Uiso   1.00
C1064  C     0.40865   0.57215  -0.00001   0.00000  Uiso   1.00
C1065  C     0.09135  -0.07215  -0.00001   0.00000  Uiso   1.00
C1066  C     0.09135   0.42785   0.49999   0.00000  Uiso   1.00
C1067  C     0.59135  -0.07215   0.49999   0.00000  Uiso   1.00
C1068  C     0.59135   0.42785  -0.00001   0.00000  Uiso   1.00
C1069  C    -0.09135  -0.07215   0.00001   0.00000  Uiso   1.00
C1070  C    -0.09135   0.42785   0.50001   0.00000  Uiso   1.00
C1071  C     0.40865  -0.07215   0.50001   0.00000  Uiso   1.00
C1072  C     0.40865   0.42785   0.00001   0.00000  Uiso   1.00
C1073  C     0.59135   0.50001   0.42785   0.00000  Uiso   1.00
C1074  C     0.59135   0.00001  -0.07215   0.00000  Uiso   1.00
C1075  C     0.09135   0.50001  -0.07215   0.00000  Uiso   1.00
C1076  C     0.09135   0.00001   0.42785   0.00000  Uiso   1.00
C1077  C     0.40865   0.49999   0.42785   0.00000  Uiso   1.00
C1078  C     0.40865  -0.00001  -0.07215   0.00000  Uiso   1.00
C1079  C    -0.09135   0.49999  -0.07215   0.00000  Uiso   1.00
C1080  C    -0.09135  -0.00001   0.42785   0.00000  Uiso   1.00
C1081  C     0.59135   0.49999   0.57215   0.00000  Uiso   1.00
C1082  C     0.59135  -0.00001   0.07215   0.00000  Uiso   1.00
C1083  C     0.09135   0.49999   0.07215   0.00000  Uiso   1.00
C1084  C     0.09135  -0.00001   0.57215   0.00000  Uiso   1.00
C1085  C     0.40865   0.50001   0.57215   0.00000  Uiso   1.00
C1086  C     0.40865   0.00001   0.07215   0.00000  Uiso   1.00
C1087  C    -0.09135   0.50001   0.07215   0.00000  Uiso   1.00
C1088  C    -0.09135   0.00001   0.57215   0.00000  Uiso   1.00
C1089  C     0.50001   0.57215   0.40865   0.00000  Uiso   1.00
C1090  C     0.50001   0.07215  -0.09135   0.00000  Uiso   1.00
C1091  C     0.00001   0.57215  -0.09135   0.00000  Uiso   1.00
C1092  C     0.00001   0.07215   0.40865   0.00000  Uiso   1.00
C1093  C     0.49999   0.57215   0.59135   0.00000  Uiso   1.00
C1094  C     0.49999   0.07215   0.09135   0.00000  Uiso   1.00
C1095  C    -0.00001   0.57215   0.09135   0.00000  Uiso   1.00
C1096  C    -0.00001   0.07215   0.59135   0.00000  Uiso   1.00
C1097  C     0.49999   0.42785   0.40865   0.00000  Uiso   1.00
C1098  C     0.49999  -0.07215  -0.09135   0.00000  Uiso   1.00
C1099  C    -0.00001   0.42785  -0.09135   0.00000  Uiso   1.00
C1100  C    -0.00001  -0.07215   0.40865   0.00000  Uiso   1.00
C1101  C     0.50001   0.42785   0.59135   0.00000  Uiso   1.00
C1102  C     0.50001  -0.07215   0.09135   0.00000  Uiso   1.00
C1103  C     0.00001   0.42785   0.09135   0.00000  Uiso   1.00
C1104  C     0.00001  -0.07215   0.59135   0.00000  Uiso   1.00
C1105  C     0.57215   0.59135   0.49999   0.00000  Uiso   1.00
C1106  C     0.57215   0.09135  -0.00001   0.00000  Uiso   1.00
C1107  C     0.07215   0.59135  -0.00001   0.00000  Uiso   1.00
C1108  C     0.07215   0.09135   0.49999   0.00000  Uiso   1.00
C1109  C     0.57215   0.40865   0.50001   0.00000  Uiso   1.00
C1110  C     0.57215  -0.09135   0.00001   0.00000  Uiso   1.00
C1111  C     0.07215   0.40865   0.00001   0.00000  Uiso   1.00
C1112  C     0.07215  -0.09135   0.50001   0.00000  Uiso   1.00
C1113  C     0.42785   0.59135   0.50001   0.00000  Uiso   1.00
C1114  C     0.42785   0.09135   0.00001   0.00000  Uiso   1.00
C1115  C    -0.07215   0.59135   0.00001   0.00000  Uiso   1.00
C1116  C    -0.07215   0.09135   0.50001   0.00000  Uiso   1.00
C1117  C     0.42785   0.40865   0.49999   0.00000  Uiso   1.00
C1118  C     0.42785  -0.09135  -0.00001   0.00000  Uiso   1.00
C1119  C    -0.07215   0.40865  -0.00001   0.00000  Uiso   1.00
C1120  C    -0.07215  -0.09135   0.49999   0.00000  Uiso   1.00
H1121  H     0.00001   0.09358   0.03956   0.00000  Uiso   1.00
H1122  H     0.00001   0.59358   0.53956   0.00000  Uiso   1.00
H1123  H     0.50001   0.09358   0.53956   0.00000  Uiso   1.00
H1124  H     0.50001   0.59358   0.03956   0.00000  Uiso   1.00
H1125  H    -0.00001  -0.09358   0.03956   0.00000  Uiso   1.00
H1126  H    -0.00001   0.40642   0.53956   0.00000  Uiso   1.00
H1127  H     0.49999  -0.09358   0.53956   0.00000  Uiso   1.00
H1128  H     0.49999   0.40642   0.03956   0.00000  Uiso   1.00
H1129  H    -0.00001   0.09358  -0.03956   0.00000  Uiso   1.00
H1130  H    -0.00001   0.59358   0.46044   0.00000  Uiso   1.00
H1131  H     0.49999   0.09358   0.46044   0.00000  Uiso   1.00
H1132  H     0.49999   0.59358  -0.03956   0.00000  Uiso   1.00
H1133  H     0.00001  -0.09358  -0.03956   0.00000  Uiso   1.00
H1134  H     0.00001   0.40642   0.46044   0.00000  Uiso   1.00
H1135  H     0.50001  -0.09358   0.46044   0.00000  Uiso   1.00
H1136  H     0.50001   0.40642  -0.03956   0.00000  Uiso   1.00
H1137  H     0.03956   0.00001   0.09358   0.00000  Uiso   1.00
H1138  H     0.03956   0.50001   0.59358   0.00000  Uiso   1.00
H1139  H     0.53956   0.00001   0.59358   0.00000  Uiso   1.00
H1140  H     0.53956   0.50001   0.09358   0.00000  Uiso   1.00
H1141  H     0.03956  -0.00001  -0.09358   0.00000  Uiso   1.00
H1142  H     0.03956   0.49999   0.40642   0.00000  Uiso   1.00
H1143  H     0.53956  -0.00001   0.40642   0.00000  Uiso   1.00
H1144  H     0.53956   0.49999  -0.09358   0.00000  Uiso   1.00
H1145  H    -0.03956  -0.00001   0.09358   0.00000  Uiso   1.00
H1146  H    -0.03956   0.49999   0.59358   0.00000  Uiso   1.00
H1147  H     0.46044  -0.00001   0.59358   0.00000  Uiso   1.00
H1148  H     0.46044   0.49999   0.09358   0.00000  Uiso   1.00
H1149  H    -0.03956   0.00001  -0.09358   0.00000  Uiso   1.00
H1150  H    -0.03956   0.50001   0.40642   0.00000  Uiso   1.00
H1151  H     0.46044   0.00001   0.40642   0.00000  Uiso   1.00
H1152  H     0.46044   0.50001  -0.09358   0.00000  Uiso   1.00
H1153  H     0.09358   0.03956   0.00001   0.00000  Uiso   1.00
H1154  H     0.09358   0.53956   0.50001   0.00000  Uiso   1.00
H1155  H     0.59358   0.03956   0.50001   0.00000  Uiso   1.00
H1156  H     0.59358   0.53956   0.00001   0.00000  Uiso   1.00
H1157  H    -0.09358   0.03956  -0.00001   0.00000  Uiso   1.00
H1158  H    -0.09358   0.53956   0.49999   0.00000  Uiso   1.00
H1159  H     0.40642   0.03956   0.49999   0.00000  Uiso   1.00
H1160  H     0.40642   0.53956  -0.00001   0.00000  Uiso   1.00
H1161  H     0.09358  -0.03956  -0.00001   0.00000  Uiso   1.00
H1162  H     0.09358   0.46044   0.49999   0.00000  Uiso   1.00
H1163  H     0.59358  -0.03956   0.49999   0.00000  Uiso   1.00
H1164  H     0.59358   0.46044  -0.00001   0.00000  Uiso   1.00
H1165  H    -0.09358  -0.03956   0.00001   0.00000  Uiso   1.00
H1166  H    -0.09358   0.46044   0.50001   0.00000  Uiso   1.00
H1167  H     0.40642  -0.03956   0.50001   0.00000  Uiso   1.00
H1168  H     0.40642   0.46044   0.00001   0.00000  Uiso   1.00
H1169  H     0.59358   0.50001   0.46044   0.00000  Uiso   1.00
H1170  H     0.59358   0.00001  -0.03956   0.00000  Uiso   1.00
H1171  H     0.09358   0.50001  -0.03956   0.00000  Uiso   1.00
H1172  H     0.09358   0.00001   0.46044   0.00000  Uiso   1.00
H1173  H     0.40642   0.49999   0.46044   0.00000  Uiso   1.00
H1174  H     0.40642  -0.00001  -0.03956   0.00000  Uiso   1.00
H1175  H    -0.09358   0.49999  -0.03956   0.00000  Uiso   1.00
H1176  H    -0.09358  -0.00001   0.46044   0.00000  Uiso   1.00
H1177  H     0.59358   0.49999   0.53956   0.00000  Uiso   1.00
H1178  H     0.59358  -0.00001   0.03956   0.00000  Uiso   1.00
H1179  H     0.09358   0.49999   0.03956   0.00000  Uiso   1.00
H1180  H     0.09358  -0.00001   0.53956   0.00000  Uiso   1.00
H1181  H     0.40642   0.50001   0.53956   0.00000  Uiso   1.00
H1182  H     0.40642   0.00001   0.03956   0.00000  Uiso   1.00
H1183  H    -0.09358   0.50001   0.03956   0.00000  Uiso   1.00
H1184  H    -0.09358   0.00001   0.53956   0.00000  Uiso   1.00
H1185  H     0.50001   0.53956   0.40642   0.00000  Uiso   1.00
H1186  H     0.50001   0.03956  -0.09358   0.00000  Uiso   1.00
H1187  H     0.00001   0.53956  -0.09358   0.00000  Uiso   1.00
H1188  H     0.00001   0.03956   0.40642   0.00000  Uiso   1.00
H1189  H     0.49999   0.53956   0.59358   0.00000  Uiso   1.00
H1190  H     0.49999   0.03956   0.09358   0.00000  Uiso   1.00
H1191  H    -0.00001   0.53956   0.09358   0.00000  Uiso   1.00
H1192  H    -0.00001   0.03956   0.59358   0.00000  Uiso   1.00
H1193  H     0.49999   0.46044   0.40642   0.00000  Uiso   1.00
H1194  H     0.49999  -0.03956  -0.09358   0.00000  Uiso   1.00
H1195  H    -0.00001   0.46044  -0.09358   0.00000  Uiso   1.00
H1196  H    -0.00001  -0.03956   0.40642   0.00000  Uiso   1.00
H1197  H     0.50001   0.46044   0.59358   0.00000  Uiso   1.00
H1198  H     0.50001  -0.03956   0.09358   0.00000  Uiso   1.00
H1199  H     0.00001   0.46044   0.09358   0.00000  Uiso   1.00
H1200  H     0.00001  -0.03956   0.59358   0.00000  Uiso   1.00
H1201  H     0.53956   0.59358   0.49999   0.00000  Uiso   1.00
H1202  H     0.53956   0.09358  -0.00001   0.00000  Uiso   1.00
H1203  H     0.03956   0.59358  -0.00001   0.00000  Uiso   1.00
H1204  H     0.03956   0.09358   0.49999   0.00000  Uiso   1.00
H1205  H     0.53956   0.40642   0.50001   0.00000  Uiso   1.00
H1206  H     0.53956  -0.09358   0.00001   0.00000  Uiso   1.00
H1207  H     0.03956   0.40642   0.00001   0.00000  Uiso   1.00
H1208  H     0.03956  -0.09358   0.50001   0.00000  Uiso   1.00
H1209  H     0.46044   0.59358   0.50001   0.00000  Uiso   1.00
H1210  H     0.46044   0.09358   0.00001   0.00000  Uiso   1.00
H1211  H    -0.03956   0.59358   0.00001   0.00000  Uiso   1.00
H1212  H    -0.03956   0.09358   0.50001   0.00000  Uiso   1.00
H1213  H     0.46044   0.40642   0.49999   0.00000  Uiso   1.00
H1214  H     0.46044  -0.09358  -0.00001   0.00000  Uiso   1.00
H1215  H    -0.03956   0.40642  -0.00001   0.00000  Uiso   1.00
H1216  H    -0.03956  -0.09358   0.49999   0.00000  Uiso   1.00
loop_
_geom_bond_atom_site_label_1
_geom_bond_atom_site_label_2
_geom_bond_distance
_geom_bond_site_symmetry_2
_ccdc_geom_bond_type
C1     C2      1.458   .     S
C1     O4      1.217   .     D
C1     O5      1.406   .     S
C2     N3      1.327   .     A
C2     C542    1.377   .     A
N3     Cr961   1.956   .     S
N3     C1025   1.348   .     A
O5     Cr961   1.954   .     S
C6     C7      1.458   .     S
C6     O9      1.217   .     D
C6     O10     1.406   .     S
C7     N8      1.327   .     A
C7     C547    1.377   .     A
N8     Cr962   1.956   .     S
N8     C1026   1.348   .     A
O10    Cr962   1.954   .     S
C11    C12     1.458   .     S
C11    O14     1.217   .     D
C11    O15     1.406   .     S
C12    N13     1.327   .     A
C12    C552    1.377   .     A
N13    Cr963   1.956   .     S
N13    C1027   1.348   .     A
O15    Cr963   1.954   .     S
C16    C17     1.458   .     S
C16    O19     1.217   .     D
C16    O20     1.406   .     S
C17    N18     1.327   .     A
C17    C557    1.377   .     A
N18    Cr964   1.956   .     S
N18    C1028   1.348   .     A
O20    Cr964   1.954   .     S
C21    C22     1.458   .     S
C21    O24     1.217   .     D
C21    O25     1.406   .     S
C22    N23     1.327   .     A
C22    C522    1.377   .     A
N23    Cr965   1.956   .     S
N23    C1029   1.348   .     A
O25    Cr965   1.954   .     S
C26    C27     1.458   .     S
C26    O29     1.217   .     D
C26    O30     1.406   .     S
C27    N28     1.327   .     A
C27    C527    1.377   .     A
N28    Cr966   1.956   .     S
N28    C1030   1.348   .     A
O30    Cr966   1.954   .     S
C31    C32     1.458   .     S
C31    O34     1.217   .     D
C31    O35     1.406   .     S
C32    N33     1.327   .     A
C32    C532    1.377   .     A
N33    Cr967   1.956   .     S
N33    C1031   1.348   .     A
O35    Cr967   1.954   .     S
C36    C37     1.458   .     S
C36    O39     1.217   .     D
C36    O40     1.406   .     S
C37    N38     1.327   .     A
C37    C537    1.377   .     A
N38    Cr968   1.956   .     S
N38    C1032   1.348   .     A
O40    Cr968   1.954   .     S
C41    C42     1.458   .     S
C41    O44     1.217   .     D
C41    O45     1.406   .     S
C42    N43     1.327   .     A
C42    C502    1.377   .     A
N43    Cr969   1.956   .     S
N43    C1033   1.348   .     A
O45    Cr969   1.954   .     S
C46    C47     1.458   .     S
C46    O49     1.217   .     D
C46    O50     1.406   .     S
C47    N48     1.327   .     A
C47    C507    1.377   .     A
N48    Cr970   1.956   .     S
N48    C1034   1.348   .     A
O50    Cr970   1.954   .     S
C51    C52     1.458   .     S
C51    O54     1.217   .     D
C51    O55     1.406   .     S
C52    N53     1.327   .     A
C52    C512    1.377   .     A
N53    Cr971   1.956   .     S
N53    C1035   1.348   .     A
O55    Cr971   1.954   .     S
C56    C57     1.458   .     S
C56    O59     1.217   .     D
C56    O60     1.406   .     S
C57    N58     1.327   .     A
C57    C517    1.377   .     A
N58    Cr972   1.956   .     S
N58    C1036   1.348   .     A
O60    Cr972   1.954   .     S
C61    C62     1.458   .     S
C61    O64     1.217   .     D
C61    O65     1.406   .     S
C62    N63     1.327   .     A
C62    C482    1.377   .     A
N63    Cr973   1.956   .     S
N63    C1037   1.348   .     A
O65    Cr973   1.954   .     S
C66    C67     1.458   .     S
C66    O69     1.217   .     D
C66    O70     1.406   .     S
C67    N68     1.327   .     A
C67    C487    1.377   .     A
N68    Cr974   1.956   .     S
N68    C1038   1.348   .     A
O70    Cr974   1.954   .     S
C71    C72     1.458   .     S
C71    O74     1.217   .     D
C71    O75     1.406   .     S
C72    N73     1.327   .     A
C72    C492    1.377   .     A
N73    Cr975   1.956   .     S
N73    C1039   1.348   .     A
O75    Cr975   1.954   .     S
C76    C77     1.458   .     S
C76    O79     1.217   .     D
C76    O80     1.406   .     S
C77    N78     1.327   .     A
C77    C497    1.377   .     A
N78    Cr976   1.956   .     S
N78    C1040   1.348   .     A
O80    Cr976   1.954   .     S
C81    C82     1.458   .     S
C81    O84     1.217   .     D
C81    O85     1.406   .     S
C82    N83     1.327   .     A
C82    C622    1.377   .     A
N83    Cr961   1.956   .     S
N83    C1041   1.348   .     A
O85    Cr961   1.954   .     S
C86    C87     1.458   .     S
C86    O89     1.217   .     D
C86    O90     1.406   .     S
C87    N88     1.327   .     A
C87    C627    1.377   .     A
N88    Cr962   1.956   .     S
N88    C1042   1.348   .     A
O90    Cr962   1.954   .     S
C91    C92     1.458   .     S
C91    O94     1.217   .     D
C91    O95     1.406   .     S
C92    N93     1.327   .     A
C92    C632    1.377   .     A
N93    Cr963   1.956   .     S
N93    C1043   1.348   .     A
O95    Cr963   1.954   .     S
C96    C97     1.458   .     S
C96    O99     1.217   .     D
C96    O100    1.406   .     S
C97    N98     1.327   .     A
C97    C637    1.377   .     A
N98    Cr964   1.956   .     S
N98    C1044   1.348   .     A
O100   Cr964   1.954   .     S
C101   C102    1.458   .     S
C101   O104    1.217   .     D
C101   O105    1.406   .     S
C102   N103    1.327   .     A
C102   C602    1.377   .     A
N103   Cr973   1.956   .     S
N103   C1045   1.348   .     A
O105   Cr973   1.954   .     S
C106   C107    1.458   .     S
C106   O109    1.217   .     D
C106   O110    1.406   .     S
C107   N108    1.327   .     A
C107   C607    1.377   .     A
N108   Cr974   1.956   .     S
N108   C1046   1.348   .     A
O110   Cr974   1.954   .     S
C111   C112    1.458   .     S
C111   O114    1.217   .     D
C111   O115    1.406   .     S
C112   N113    1.327   .     A
C112   C612    1.377   .     A
N113   Cr975   1.956   .     S
N113   C1047   1.348   .     A
O115   Cr975   1.954   .     S
C116   C117    1.458   .     S
C116   O119    1.217   .     D
C116   O120    1.406   .     S
C117   N118    1.327   .     A
C117   C617    1.377   .     A
N118   Cr976   1.956   .     S
N118   C1048   1.348   .     A
O120   Cr976   1.954   .     S
C121   C122    1.458   .     S
C121   O124    1.217   .     D
C121   O125    1.406   .     S
C122   N123    1.327   .     A
C122   C582    1.377   .     A
N123   Cr965   1.956   .     S
N123   C1049   1.348   .     A
O125   Cr965   1.954   .     S
C126   C127    1.458   .     S
C126   O129    1.217   .     D
C126   O130    1.406   .     S
C127   N128    1.327   .     A
C127   C587    1.377   .     A
N128   Cr966   1.956   .     S
N128   C1050   1.348   .     A
O130   Cr966   1.954   .     S
C131   C132    1.458   .     S
C131   O134    1.217   .     D
C131   O135    1.406   .     S
C132   N133    1.327   .     A
C132   C592    1.377   .     A
N133   Cr967   1.956   .     S
N133   C1051   1.348   .     A
O135   Cr967   1.954   .     S
C136   C137    1.458   .     S
C136   O139    1.217   .     D
C136   O140    1.406   .     S
C137   N138    1.327   .     A
C137   C597    1.377   .     A
N138   Cr968   1.956   .     S
N138   C1052   1.348   .     A
O140   Cr968   1.954   .     S
C141   C142    1.458   .     S
C141   O144    1.217   .     D
C141   O145    1.406   .     S
C142   N143    1.327   .     A
C142   C562    1.377   .     A
N143   Cr969   1.956   .     S
N143   C1053   1.348   .     A
O145   Cr969   1.954   .     S
C146   C147    1.458   .     S
C146   O149    1.217   .     D
C146   O150    1.406   .     S
C147   N148    1.327   .     A
C147   C567    1.377   .     A
N148   Cr970   1.956   .     S
N148   C1054   1.348   .     A
O150   Cr970   1.954   .     S
C151   C152    1.458   .     S
C151   O154    1.217   .     D
C151   O155    1.406   .     S
C152   N153    1.327   .     A
C152   C572    1.377   .     A
N153   Cr971   1.956   .     S
N153   C1055   1.348   .     A
O155   Cr971   1.954   .     S
C156   C157    1.458   .     S
C156   O159    1.217   .     D
C156   O160    1.406   .     S
C157   N158    1.327   .     A
C157   C577    1.377   .     A
N158   Cr972   1.956   .     S
N158   C1056   1.348   .     A
O160   Cr972   1.954   .     S
C161   C162    1.458   .     S
C161   O164    1.217   .     D
C161   O165    1.406   .     S
C162   N163    1.327   .     A
C162   C702    1.377   .     A
N163   Cr961   1.956   .     S
N163   C1057   1.348   .     A
O165   Cr961   1.954   .     S
C166   C167    1.458   .     S
C166   O169    1.217   .     D
C166   O170    1.406   .     S
C167   N168    1.327   .     A
C167   C707    1.377   .     A
N168   Cr962   1.956   .     S
N168   C1058   1.348   .     A
O170   Cr962   1.954   .     S
C171   C172    1.458   .     S
C171   O174    1.217   .     D
C171   O175    1.406   .     S
C172   N173    1.327   .     A
C172   C712    1.377   .     A
N173   Cr963   1.956   .     S
N173   C1059   1.348   .     A
O175   Cr963   1.954   .     S
C176   C177    1.458   .     S
C176   O179    1.217   .     D
C176   O180    1.406   .     S
C177   N178    1.327   .     A
C177   C717    1.377   .     A
N178   Cr964   1.956   .     S
N178   C1060   1.348   .     A
O180   Cr964   1.954   .     S
C181   C182    1.458   .     S
C181   O184    1.217   .     D
C181   O185    1.406   .     S
C182   N183    1.327   .     A
C182   C682    1.377   .     A
N183   Cr969   1.956   .     S
N183   C1061   1.348   .     A
O185   Cr969   1.954   .     S
C186   C187    1.458   .     S
C186   O189    1.217   .     D
C186   O190    1.406   .     S
C187   N188    1.327   .     A
C187   C687    1.377   .     A
N188   Cr970   1.956   .     S
N188   C1062   1.348   .     A
O190   Cr970   1.954   .     S
C191   C192    1.458   .     S
C191   O194    1.217   .     D
C191   O195    1.406   .     S
C192   N193    1.327   .     A
C192   C692    1.377   .     A
N193   Cr971   1.956   .     S
N193   C1063   1.348   .     A
O195   Cr971   1.954   .     S
C196   C197    1.458   .     S
C196   O199    1.217   .     D
C196   O200    1.406   .     S
C197   N198    1.327   .     A
C197   C697    1.377   .     A
N198   Cr972   1.956   .     S
N198   C1064   1.348   .     A
O200   Cr972   1.954   .     S
C201   C202    1.458   .     S
C201   O204    1.217   .     D
C201   O205    1.406   .     S
C202   N203    1.327   .     A
C202   C662    1.377   .     A
N203   Cr973   1.956   .     S
N203   C1065   1.348   .     A
O205   Cr973   1.954   .     S
C206   C207    1.458   .     S
C206   O209    1.217   .     D
C206   O210    1.406   .     S
C207   N208    1.327   .     A
C207   C667    1.377   .     A
N208   Cr974   1.956   .     S
N208   C1066   1.348   .     A
O210   Cr974   1.954   .     S
C211   C212    1.458   .     S
C211   O214    1.217   .     D
C211   O215    1.406   .     S
C212   N213    1.327   .     A
C212   C672    1.377   .     A
N213   Cr975   1.956   .     S
N213   C1067   1.348   .     A
O215   Cr975   1.954   .     S
C216   C217    1.458   .     S
C216   O219    1.217   .     D
C216   O220    1.406   .     S
C217   N218    1.327   .     A
C217   C677    1.377   .     A
N218   Cr976   1.956   .     S
N218   C1068   1.348   .     A
O220   Cr976   1.954   .     S
C221   C222    1.458   .     S
C221   O224    1.217   .     D
C221   O225    1.406   .     S
C222   N223    1.327   .     A
C222   C642    1.377   .     A
N223   Cr965   1.956   .     S
N223   C1069   1.348   .     A
O225   Cr965   1.954   .     S
C226   C227    1.458   .     S
C226   O229    1.217   .     D
C226   O230    1.406   .     S
C227   N228    1.327   .     A
C227   C647    1.377   .     A
N228   Cr966   1.956   .     S
N228   C1070   1.348   .     A
O230   Cr966   1.954   .     S
C231   C232    1.458   .     S
C231   O234    1.217   .     D
C231   O235    1.406   .     S
C232   N233    1.327   .     A
C232   C652    1.377   .     A
N233   Cr967   1.956   .     S
N233   C1071   1.348   .     A
O235   Cr967   1.954   .     S
C236   C237    1.458   .     S
C236   O239    1.217   .     D
C236   O240    1.406   .     S
C237   N238    1.327   .     A
C237   C657    1.377   .     A
N238   Cr968   1.956   .     S
N238   C1072   1.348   .     A
O240   Cr968   1.954   .     S
C241   C242    1.458   .     S
C241   O244    1.217   .     D
C241   O245    1.406   .     S
C242   N243    1.327   .     A
C242   C782    1.377   .     A
N243   Cr977   1.956   .     S
N243   C1073   1.348   .     A
O245   Cr977   1.954   .     S
C246   C247    1.458   .     S
C246   O249    1.217   .     D
C246   O250    1.406   .     S
C247   N248    1.327   .     A
C247   C787    1.377   .     A
N248   Cr978   1.956   .     S
N248   C1074   1.348   .     A
O250   Cr978   1.954   .     S
C251   C252    1.458   .     S
C251   O254    1.217   .     D
C251   O255    1.406   .     S
C252   N253    1.327   .     A
C252   C792    1.377   .     A
N253   Cr979   1.956   .     S
N253   C1075   1.348   .     A
O255   Cr979   1.954   .     S
C256   C257    1.458   .     S
C256   O259    1.217   .     D
C256   O260    1.406   .     S
C257   N258    1.327   .     A
C257   C797    1.377   .     A
N258   Cr980   1.956   .     S
N258   C1076   1.348   .     A
O260   Cr980   1.954   .     S
C261   C262    1.458   .     S
C261   O264    1.217   .     D
C261   O265    1.406   .     S
C262   N263    1.327   .     A
C262   C762    1.377   .     A
N263   Cr981   1.956   .     S
N263   C1077   1.348   .     A
O265   Cr981   1.954   .     S
C266   C267    1.458   .     S
C266   O269    1.217   .     D
C266   O270    1.406   .     S
C267   N268    1.327   .     A
C267   C767    1.377   .     A
N268   Cr982   1.956   .     S
N268   C1078   1.348   .     A
O270   Cr982   1.954   .     S
C271   C272    1.458   .     S
C271   O274    1.217   .     D
C271   O275    1.406   .     S
C272   N273    1.327   .     A
C272   C772    1.377   .     A
N273   Cr983   1.956   .     S
N273   C1079   1.348   .     A
O275   Cr983   1.954   .     S
C276   C277    1.458   .     S
C276   O279    1.217   .     D
C276   O280    1.406   .     S
C277   N278    1.327   .     A
C277   C777    1.377   .     A
N278   Cr984   1.956   .     S
N278   C1080   1.348   .     A
O280   Cr984   1.954   .     S
C281   C282    1.458   .     S
C281   O284    1.217   .     D
C281   O285    1.406   .     S
C282   N283    1.327   .     A
C282   C742    1.377   .     A
N283   Cr985   1.956   .     S
N283   C1081   1.348   .     A
O285   Cr985   1.954   .     S
C286   C287    1.458   .     S
C286   O289    1.217   .     D
C286   O290    1.406   .     S
C287   N288    1.327   .     A
C287   C747    1.377   .     A
N288   Cr986   1.956   .     S
N288   C1082   1.348   .     A
O290   Cr986   1.954   .     S
C291   C292    1.458   .     S
C291   O294    1.217   .     D
C291   O295    1.406   .     S
C292   N293    1.327   .     A
C292   C752    1.377   .     A
N293   Cr987   1.956   .     S
N293   C1083   1.348   .     A
O295   Cr987   1.954   .     S
C296   C297    1.458   .     S
C296   O299    1.217   .     D
C296   O300    1.406   .     S
C297   N298    1.327   .     A
C297   C757    1.377   .     A
N298   Cr988   1.956   .     S
N298   C1084   1.348   .     A
O300   Cr988   1.954   .     S
C301   C302    1.458   .     S
C301   O304    1.217   .     D
C301   O305    1.406   .     S
C302   N303    1.327   .     A
C302   C722    1.377   .     A
N303   Cr989   1.956   .     S
N303   C1085   1.348   .     A
O305   Cr989   1.954   .     S
C306   C307    1.458   .     S
C306   O309    1.217   .     D
C306   O310    1.406   .     S
C307   N308    1.327   .     A
C307   C727    1.377   .     A
N308   Cr990   1.956   .     S
N308   C1086   1.348   .     A
O310   Cr990   1.954   .     S
C311   C312    1.458   .     S
C311   O314    1.217   .     D
C311   O315    1.406   .     S
C312   N313    1.327   .     A
C312   C732    1.377   .     A
N313   Cr991   1.956   .     S
N313   C1087   1.348   .     A
O315   Cr991   1.954   .     S
C316   C317    1.458   .     S
C316   O319    1.217   .     D
C316   O320    1.406   .     S
C317   N318    1.327   .     A
C317   C737    1.377   .     A
N318   Cr992   1.956   .     S
N318   C1088   1.348   .     A
O320   Cr992   1.954   .     S
C321   C322    1.458   .     S
C321   O324    1.217   .     D
C321   O325    1.406   .     S
C322   N323    1.327   .     A
C322   C862    1.377   .     A
N323   Cr977   1.956   .     S
N323   C1089   1.348   .     A
O325   Cr977   1.954   .     S
C326   C327    1.458   .     S
C326   O329    1.217   .     D
C326   O330    1.406   .     S
C327   N328    1.327   .     A
C327   C867    1.377   .     A
N328   Cr978   1.956   .     S
N328   C1090   1.348   .     A
O330   Cr978   1.954   .     S
C331   C332    1.458   .     S
C331   O334    1.217   .     D
C331   O335    1.406   .     S
C332   N333    1.327   .     A
C332   C872    1.377   .     A
N333   Cr979   1.956   .     S
N333   C1091   1.348   .     A
O335   Cr979   1.954   .     S
C336   C337    1.458   .     S
C336   O339    1.217   .     D
C336   O340    1.406   .     S
C337   N338    1.327   .     A
C337   C877    1.377   .     A
N338   Cr980   1.956   .     S
N338   C1092   1.348   .     A
O340   Cr980   1.954   .     S
C341   C342    1.458   .     S
C341   O344    1.217   .     D
C341   O345    1.406   .     S
C342   N343    1.327   .     A
C342   C842    1.377   .     A
N343   Cr989   1.956   .     S
N343   C1093   1.348   .     A
O345   Cr989   1.954   .     S
C346   C347    1.458   .     S
C346   O349    1.217   .     D
C346   O350    1.406   .     S
C347   N348    1.327   .     A
C347   C847    1.377   .     A
N348   Cr990   1.956   .     S
N348   C1094   1.348   .     A
O350   Cr990   1.954   .     S
C351   C352    1.458   .     S
C351   O354    1.217   .     D
C351   O355    1.406   .     S
C352   N353    1.327   .     A
C352   C852    1.377   .     A
N353   Cr991   1.956   .     S
N353   C1095   1.348   .     A
O355   Cr991   1.954   .     S
C356   C357    1.458   .     S
C356   O359    1.217   .     D
C356   O360    1.406   .     S
C357   N358    1.327   .     A
C357   C857    1.377   .     A
N358   Cr992   1.956   .     S
N358   C1096   1.348   .     A
O360   Cr992   1.954   .     S
C361   C362    1.458   .     S
C361   O364    1.217   .     D
C361   O365    1.406   .     S
C362   N363    1.327   .     A
C362   C822    1.377   .     A
N363   Cr981   1.956   .     S
N363   C1097   1.348   .     A
O365   Cr981   1.954   .     S
C366   C367    1.458   .     S
C366   O369    1.217   .     D
C366   O370    1.406   .     S
C367   N368    1.327   .     A
C367   C827    1.377   .     A
N368   Cr982   1.956   .     S
N368   C1098   1.348   .     A
O370   Cr982   1.954   .     S
C371   C372    1.458   .     S
C371   O374    1.217   .     D
C371   O375    1.406   .     S
C372   N373    1.327   .     A
C372   C832    1.377   .     A
N373   Cr983   1.956   .     S
N373   C1099   1.348   .     A
O375   Cr983   1.954   .     S
C376   C377    1.458   .     S
C376   O379    1.217   .     D
C376   O380    1.406   .     S
C377   N378    1.327   .     A
C377   C837    1.377   .     A
N378   Cr984   1.956   .     S
N378   C1100   1.348   .     A
O380   Cr984   1.954   .     S
C381   C382    1.458   .     S
C381   O384    1.217   .     D
C381   O385    1.406   .     S
C382   N383    1.327   .     A
C382   C802    1.377   .     A
N383   Cr985   1.956   .     S
N383   C1101   1.348   .     A
O385   Cr985   1.954   .     S
C386   C387    1.458   .     S
C386   O389    1.217   .     D
C386   O390    1.406   .     S
C387   N388    1.327   .     A
C387   C807    1.377   .     A
N388   Cr986   1.956   .     S
N388   C1102   1.348   .     A
O390   Cr986   1.954   .     S
C391   C392    1.458   .     S
C391   O394    1.217   .     D
C391   O395    1.406   .     S
C392   N393    1.327   .     A
C392   C812    1.377   .     A
N393   Cr987   1.956   .     S
N393   C1103   1.348   .     A
O395   Cr987   1.954   .     S
C396   C397    1.458   .     S
C396   O399    1.217   .     D
C396   O400    1.406   .     S
C397   N398    1.327   .     A
C397   C817    1.377   .     A
N398   Cr988   1.956   .     S
N398   C1104   1.348   .     A
O400   Cr988   1.954   .     S
C401   C402    1.458   .     S
C401   O404    1.217   .     D
C401   O405    1.406   .     S
C402   N403    1.327   .     A
C402   C942    1.377   .     A
N403   Cr977   1.956   .     S
N403   C1105   1.348   .     A
O405   Cr977   1.954   .     S
C406   C407    1.458   .     S
C406   O409    1.217   .     D
C406   O410    1.406   .     S
C407   N408    1.327   .     A
C407   C947    1.377   .     A
N408   Cr978   1.956   .     S
N408   C1106   1.348   .     A
O410   Cr978   1.954   .     S
C411   C412    1.458   .     S
C411   O414    1.217   .     D
C411   O415    1.406   .     S
C412   N413    1.327   .     A
C412   C952    1.377   .     A
N413   Cr979   1.956   .     S
N413   C1107   1.348   .     A
O415   Cr979   1.954   .     S
C416   C417    1.458   .     S
C416   O419    1.217   .     D
C416   O420    1.406   .     S
C417   N418    1.327   .     A
C417   C957    1.377   .     A
N418   Cr980   1.956   .     S
N418   C1108   1.348   .     A
O420   Cr980   1.954   .     S
C421   C422    1.458   .     S
C421   O424    1.217   .     D
C421   O425    1.406   .     S
C422   N423    1.327   .     A
C422   C922    1.377   .     A
N423   Cr985   1.956   .     S
N423   C1109   1.348   .     A
O425   Cr985   1.954   .     S
C426   C427    1.458   .     S
C426   O429    1.217   .     D
C426   O430    1.406   .     S
C427   N428    1.327   .     A
C427   C927    1.377   .     A
N428   Cr986   1.956   .     S
N428   C1110   1.348   .     A
O430   Cr986   1.954   .     S
C431   C432    1.458   .     S
C431   O434    1.217   .     D
C431   O435    1.406   .     S
C432   N433    1.327   .     A
C432   C932    1.377   .     A
N433   Cr987   1.956   .     S
N433   C1111   1.348   .     A
O435   Cr987   1.954   .     S
C436   C437    1.458   .     S
C436   O439    1.217   .     D
C436   O440    1.406   .     S
C437   N438    1.327   .     A
C437   C937    1.377   .     A
N438   Cr988   1.956   .     S
N438   C1112   1.348   .     A
O440   Cr988   1.954   .     S
C441   C442    1.458   .     S
C441   O444    1.217   .     D
C441   O445    1.406   .     S
C442   N443    1.327   .     A
C442   C902    1.377   .     A
N443   Cr989   1.956   .     S
N443   C1113   1.348   .     A
O445   Cr989   1.954   .     S
C446   C447    1.458   .     S
C446   O449    1.217   .     D
C446   O450    1.406   .     S
C447   N448    1.327   .     A
C447   C907    1.377   .     A
N448   Cr990   1.956   .     S
N448   C1114   1.348   .     A
O450   Cr990   1.954   .     S
C451   C452    1.458   .     S
C451   O454    1.217   .     D
C451   O455    1.406   .     S
C452   N453    1.327   .     A
C452   C912    1.377   .     A
N453   Cr991   1.956   .     S
N453   C1115   1.348   .     A
O455   Cr991   1.954   .     S
C456   C457    1.458   .     S
C456   O459    1.217   .     D
C456   O460    1.406   .     S
C457   N458    1.327   .     A
C457   C917    1.377   .     A
N458   Cr992   1.956   .     S
N458   C1116   1.348   .     A
O460   Cr992   1.954   .     S
C461   C462    1.458   .     S
C461   O464    1.217   .     D
C461   O465    1.406   .     S
C462   N463    1.327   .     A
C462   C882    1.377   .     A
N463   Cr981   1.956   .     S
N463   C1117   1.348   .     A
O465   Cr981   1.954   .     S
C466   C467    1.458   .     S
C466   O469    1.217   .     D
C466   O470    1.406   .     S
C467   N468    1.327   .     A
C467   C887    1.377   .     A
N468   Cr982   1.956   .     S
N468   C1118   1.348   .     A
O470   Cr982   1.954   .     S
C471   C472    1.458   .     S
C471   O474    1.217   .     D
C471   O475    1.406   .     S
C472   N473    1.327   .     A
C472   C892    1.377   .     A
N473   Cr983   1.956   .     S
N473   C1119   1.348   .     A
O475   Cr983   1.954   .     S
C476   C477    1.458   .     S
C476   O479    1.217   .     D
C476   O480    1.406   .     S
C477   N478    1.327   .     A
C477   C897    1.377   .     A
N478   Cr984   1.956   .     S
N478   C1120   1.348   .     A
O480   Cr984   1.954   .     S
C481   C482    1.458   .     S
C481   O484    1.217   .     D
C481   O485    1.406   .     S
C482   N483    1.327   .     A
N483   Cr993   1.956   .     S
N483   C1037   1.348   .     A
O485   Cr993   1.954   .     S
C486   C487    1.458   .     S
C486   O489    1.217   .     D
C486   O490    1.406   .     S
C487   N488    1.327   .     A
N488   Cr994   1.956   .     S
N488   C1038   1.348   .     A
O490   Cr994   1.954   .     S
C491   C492    1.458   .     S
C491   O494    1.217   .     D
C491   O495    1.406   .     S
C492   N493    1.327   .     A
N493   Cr995   1.956   .     S
N493   C1039   1.348   .     A
O495   Cr995   1.954   .     S
C496   C497    1.458   .     S
C496   O499    1.217   .     D
C496   O500    1.406   .     S
C497   N498    1.327   .     A
N498   Cr996   1.956   .     S
N498   C1040   1.348   .     A
O500   Cr996   1.954   .     S
C501   C502    1.458   .     S
C501   O504    1.217   .     D
C501   O505    1.406   .     S
C502   N503    1.327   .     A
N503   Cr997   1.956   .     S
N503   C1033   1.348   .     A
O505   Cr997   1.954   .     S
C506   C507    1.458   .     S
C506   O509    1.217   .     D
C506   O510    1.406   .     S
C507   N508    1.327   .     A
N508   Cr998   1.956   .     S
N508   C1034   1.348   .     A
O510   Cr998   1.954   .     S
C511   C512    1.458   .     S
C511   O514    1.217   .     D
C511   O515    1.406   .     S
C512   N513    1.327   .     A
N513   Cr999   1.956   .     S
N513   C1035   1.348   .     A
O515   Cr999   1.954   .     S
C516   C517    1.458   .     S
C516   O519    1.217   .     D
C516   O520    1.406   .     S
C517   N518    1.327   .     A
N518   Cr1000  1.956   .     S
N518   C1036   1.348   .     A
O520   Cr1000  1.954   .     S
C521   C522    1.458   .     S
C521   O524    1.217   .     D
C521   O525    1.406   .     S
C522   N523    1.327   .     A
N523   Cr1001  1.956   .     S
N523   C1029   1.348   .     A
O525   Cr1001  1.954   .     S
C526   C527    1.458   .     S
C526   O529    1.217   .     D
C526   O530    1.406   .     S
C527   N528    1.327   .     A
N528   Cr1002  1.956   .     S
N528   C1030   1.348   .     A
O530   Cr1002  1.954   .     S
C531   C532    1.458   .     S
C531   O534    1.217   .     D
C531   O535    1.406   .     S
C532   N533    1.327   .     A
N533   Cr1003  1.956   .     S
N533   C1031   1.348   .     A
O535   Cr1003  1.954   .     S
C536   C537    1.458   .     S
C536   O539    1.217   .     D
C536   O540    1.406   .     S
C537   N538    1.327   .     A
N538   Cr1004  1.956   .     S
N538   C1032   1.348   .     A
O540   Cr1004  1.954   .     S
C541   C542    1.458   .     S
C541   O544    1.217   .     D
C541   O545    1.406   .     S
C542   N543    1.327   .     A
N543   Cr1005  1.956   .     S
N543   C1025   1.348   .     A
O545   Cr1005  1.954   .     S
C546   C547    1.458   .     S
C546   O549    1.217   .     D
C546   O550    1.406   .     S
C547   N548    1.327   .     A
N548   Cr1006  1.956   .     S
N548   C1026   1.348   .     A
O550   Cr1006  1.954   .     S
C551   C552    1.458   .     S
C551   O554    1.217   .     D
C551   O555    1.406   .     S
C552   N553    1.327   .     A
N553   Cr1007  1.956   .     S
N553   C1027   1.348   .     A
O555   Cr1007  1.954   .     S
C556   C557    1.458   .     S
C556   O559    1.217   .     D
C556   O560    1.406   .     S
C557   N558    1.327   .     A
N558   Cr1008  1.956   .     S
N558   C1028   1.348   .     A
O560   Cr1008  1.954   .     S
C561   C562    1.458   .     S
C561   O564    1.217   .     D
C561   O565    1.406   .     S
C562   N563    1.327   .     A
N563   Cr993   1.956   .     S
N563   C1053   1.348   .     A
O565   Cr993   1.954   .     S
C566   C567    1.458   .     S
C566   O569    1.217   .     D
C566   O570    1.406   .     S
C567   N568    1.327   .     A
N568   Cr994   1.956   .     S
N568   C1054   1.348   .     A
O570   Cr994   1.954   .     S
C571   C572    1.458   .     S
C571   O574    1.217   .     D
C571   O575    1.406   .     S
C572   N573    1.327   .     A
N573   Cr995   1.956   .     S
N573   C1055   1.348   .     A
O575   Cr995   1.954   .     S
C576   C577    1.458   .     S
C576   O579    1.217   .     D
C576   O580    1.406   .     S
C577   N578    1.327   .     A
N578   Cr996   1.956   .     S
N578   C1056   1.348   .     A
O580   Cr996   1.954   .     S
C581   C582    1.458   .     S
C581   O584    1.217   .     D
C581   O585    1.406   .     S
C582   N583    1.327   .     A
N583   Cr1005  1.956   .     S
N583   C1049   1.348   .     A
O585   Cr1005  1.954   .     S
C586   C587    1.458   .     S
C586   O589    1.217   .     D
C586   O590    1.406   .     S
C587   N588    1.327   .     A
N588   Cr1006  1.956   .     S
N588   C1050   1.348   .     A
O590   Cr1006  1.954   .     S
C591   C592    1.458   .     S
C591   O594    1.217   .     D
C591   O595    1.406   .     S
C592   N593    1.327   .     A
N593   Cr1007  1.956   .     S
N593   C1051   1.348   .     A
O595   Cr1007  1.954   .     S
C596   C597    1.458   .     S
C596   O599    1.217   .     D
C596   O600    1.406   .     S
C597   N598    1.327   .     A
N598   Cr1008  1.956   .     S
N598   C1052   1.348   .     A
O600   Cr1008  1.954   .     S
C601   C602    1.458   .     S
C601   O604    1.217   .     D
C601   O605    1.406   .     S
C602   N603    1.327   .     A
N603   Cr997   1.956   .     S
N603   C1045   1.348   .     A
O605   Cr997   1.954   .     S
C606   C607    1.458   .     S
C606   O609    1.217   .     D
C606   O610    1.406   .     S
C607   N608    1.327   .     A
N608   Cr998   1.956   .     S
N608   C1046   1.348   .     A
O610   Cr998   1.954   .     S
C611   C612    1.458   .     S
C611   O614    1.217   .     D
C611   O615    1.406   .     S
C612   N613    1.327   .     A
N613   Cr999   1.956   .     S
N613   C1047   1.348   .     A
O615   Cr999   1.954   .     S
C616   C617    1.458   .     S
C616   O619    1.217   .     D
C616   O620    1.406   .     S
C617   N618    1.327   .     A
N618   Cr1000  1.956   .     S
N618   C1048   1.348   .     A
O620   Cr1000  1.954   .     S
C621   C622    1.458   .     S
C621   O624    1.217   .     D
C621   O625    1.406   .     S
C622   N623    1.327   .     A
N623   Cr1001  1.956   .     S
N623   C1041   1.348   .     A
O625   Cr1001  1.954   .     S
C626   C627    1.458   .     S
C626   O629    1.217   .     D
C626   O630    1.406   .     S
C627   N628    1.327   .     A
N628   Cr1002  1.956   .     S
N628   C1042   1.348   .     A
O630   Cr1002  1.954   .     S
C631   C632    1.458   .     S
C631   O634    1.217   .     D
C631   O635    1.406   .     S
C632   N633    1.327   .     A
N633   Cr1003  1.956   .     S
N633   C1043   1.348   .     A
O635   Cr1003  1.954   .     S
C636   C637    1.458   .     S
C636   O639    1.217   .     D
C636   O640    1.406   .     S
C637   N638    1.327   .     A
N638   Cr1004  1.956   .     S
N638   C1044   1.348   .     A
O640   Cr1004  1.954   .     S
C641   C642    1.458   .     S
C641   O644    1.217   .     D
C641   O645    1.406   .     S
C642   N643    1.327   .     A
N643   Cr993   1.956   .     S
N643   C1069   1.348   .     A
O645   Cr993   1.954   .     S
C646   C647    1.458   .     S
C646   O649    1.217   .     D
C646   O650    1.406   .     S
C647   N648    1.327   .     A
N648   Cr994   1.956   .     S
N648   C1070   1.348   .     A
O650   Cr994   1.954   .     S
C651   C652    1.458   .     S
C651   O654    1.217   .     D
C651   O655    1.406   .     S
C652   N653    1.327   .     A
N653   Cr995   1.956   .     S
N653   C1071   1.348   .     A
O655   Cr995   1.954   .     S
C656   C657    1.458   .     S
C656   O659    1.217   .     D
C656   O660    1.406   .     S
C657   N658    1.327   .     A
N658   Cr996   1.956   .     S
N658   C1072   1.348   .     A
O660   Cr996   1.954   .     S
C661   C662    1.458   .     S
C661   O664    1.217   .     D
C661   O665    1.406   .     S
C662   N663    1.327   .     A
N663   Cr1001  1.956   .     S
N663   C1065   1.348   .     A
O665   Cr1001  1.954   .     S
C666   C667    1.458   .     S
C666   O669    1.217   .     D
C666   O670    1.406   .     S
C667   N668    1.327   .     A
N668   Cr1002  1.956   .     S
N668   C1066   1.348   .     A
O670   Cr1002  1.954   .     S
C671   C672    1.458   .     S
C671   O674    1.217   .     D
C671   O675    1.406   .     S
C672   N673    1.327   .     A
N673   Cr1003  1.956   .     S
N673   C1067   1.348   .     A
O675   Cr1003  1.954   .     S
C676   C677    1.458   .     S
C676   O679    1.217   .     D
C676   O680    1.406   .     S
C677   N678    1.327   .     A
N678   Cr1004  1.956   .     S
N678   C1068   1.348   .     A
O680   Cr1004  1.954   .     S
C681   C682    1.458   .     S
C681   O684    1.217   .     D
C681   O685    1.406   .     S
C682   N683    1.327   .     A
N683   Cr1005  1.956   .     S
N683   C1061   1.348   .     A
O685   Cr1005  1.954   .     S
C686   C687    1.458   .     S
C686   O689    1.217   .     D
C686   O690    1.406   .     S
C687   N688    1.327   .     A
N688   Cr1006  1.956   .     S
N688   C1062   1.348   .     A
O690   Cr1006  1.954   .     S
C691   C692    1.458   .     S
C691   O694    1.217   .     D
C691   O695    1.406   .     S
C692   N693    1.327   .     A
N693   Cr1007  1.956   .     S
N693   C1063   1.348   .     A
O695   Cr1007  1.954   .     S
C696   C697    1.458   .     S
C696   O699    1.217   .     D
C696   O700    1.406   .     S
C697   N698    1.327   .     A
N698   Cr1008  1.956   .     S
N698   C1064   1.348   .     A
O700   Cr1008  1.954   .     S
C701   C702    1.458   .     S
C701   O704    1.217   .     D
C701   O705    1.406   .     S
C702   N703    1.327   .     A
N703   Cr997   1.956   .     S
N703   C1057   1.348   .     A
O705   Cr997   1.954   .     S
C706   C707    1.458   .     S
C706   O709    1.217   .     D
C706   O710    1.406   .     S
C707   N708    1.327   .     A
N708   Cr998   1.956   .     S
N708   C1058   1.348   .     A
O710   Cr998   1.954   .     S
C711   C712    1.458   .     S
C711   O714    1.217   .     D
C711   O715    1.406   .     S
C712   N713    1.327   .     A
N713   Cr999   1.956   .     S
N713   C1059   1.348   .     A
O715   Cr999   1.954   .     S
C716   C717    1.458   .     S
C716   O719    1.217   .     D
C716   O720    1.406   .     S
C717   N718    1.327   .     A
N718   Cr1000  1.956   .     S
N718   C1060   1.348   .     A
O720   Cr1000  1.954   .     S
C721   C722    1.458   .     S
C721   O724    1.217   .     D
C721   O725    1.406   .     S
C722   N723    1.327   .     A
N723   Cr1009  1.956   .     S
N723   C1085   1.348   .     A
O725   Cr1009  1.954   .     S
C726   C727    1.458   .     S
C726   O729    1.217   .     D
C726   O730    1.406   .     S
C727   N728    1.327   .     A
N728   Cr1010  1.956   .     S
N728   C1086   1.348   .     A
O730   Cr1010  1.954   .     S
C731   C732    1.458   .     S
C731   O734    1.217   .     D
C731   O735    1.406   .     S
C732   N733    1.327   .     A
N733   Cr1011  1.956   .     S
N733   C1087   1.348   .     A
O735   Cr1011  1.954   .     S
C736   C737    1.458   .     S
C736   O739    1.217   .     D
C736   O740    1.406   .     S
C737   N738    1.327   .     A
N738   Cr1012  1.956   .     S
N738   C1088   1.348   .     A
O740   Cr1012  1.954   .     S
C741   C742    1.458   .     S
C741   O744    1.217   .     D
C741   O745    1.406   .     S
C742   N743    1.327   .     A
N743   Cr1013  1.956   .     S
N743   C1081   1.348   .     A
O745   Cr1013  1.954   .     S
C746   C747    1.458   .     S
C746   O749    1.217   .     D
C746   O750    1.406   .     S
C747   N748    1.327   .     A
N748   Cr1014  1.956   .     S
N748   C1082   1.348   .     A
O750   Cr1014  1.954   .     S
C751   C752    1.458   .     S
C751   O754    1.217   .     D
C751   O755    1.406   .     S
C752   N753    1.327   .     A
N753   Cr1015  1.956   .     S
N753   C1083   1.348   .     A
O755   Cr1015  1.954   .     S
C756   C757    1.458   .     S
C756   O759    1.217   .     D
C756   O760    1.406   .     S
C757   N758    1.327   .     A
N758   Cr1016  1.956   .     S
N758   C1084   1.348   .     A
O760   Cr1016  1.954   .     S
C761   C762    1.458   .     S
C761   O764    1.217   .     D
C761   O765    1.406   .     S
C762   N763    1.327   .     A
N763   Cr1017  1.956   .     S
N763   C1077   1.348   .     A
O765   Cr1017  1.954   .     S
C766   C767    1.458   .     S
C766   O769    1.217   .     D
C766   O770    1.406   .     S
C767   N768    1.327   .     A
N768   Cr1018  1.956   .     S
N768   C1078   1.348   .     A
O770   Cr1018  1.954   .     S
C771   C772    1.458   .     S
C771   O774    1.217   .     D
C771   O775    1.406   .     S
C772   N773    1.327   .     A
N773   Cr1019  1.956   .     S
N773   C1079   1.348   .     A
O775   Cr1019  1.954   .     S
C776   C777    1.458   .     S
C776   O779    1.217   .     D
C776   O780    1.406   .     S
C777   N778    1.327   .     A
N778   Cr1020  1.956   .     S
N778   C1080   1.348   .     A
O780   Cr1020  1.954   .     S
C781   C782    1.458   .     S
C781   O784    1.217   .     D
C781   O785    1.406   .     S
C782   N783    1.327   .     A
N783   Cr1021  1.956   .     S
N783   C1073   1.348   .     A
O785   Cr1021  1.954   .     S
C786   C787    1.458   .     S
C786   O789    1.217   .     D
C786   O790    1.406   .     S
C787   N788    1.327   .     A
N788   Cr1022  1.956   .     S
N788   C1074   1.348   .     A
O790   Cr1022  1.954   .     S
C791   C792    1.458   .     S
C791   O794    1.217   .     D
C791   O795    1.406   .     S
C792   N793    1.327   .     A
N793   Cr1023  1.956   .     S
N793   C1075   1.348   .     A
O795   Cr1023  1.954   .     S
C796   C797    1.458   .     S
C796   O799    1.217   .     D
C796   O800    1.406   .     S
C797   N798    1.327   .     A
N798   Cr1024  1.956   .     S
N798   C1076   1.348   .     A
O800   Cr1024  1.954   .     S
C801   C802    1.458   .     S
C801   O804    1.217   .     D
C801   O805    1.406   .     S
C802   N803    1.327   .     A
N803   Cr1009  1.956   .     S
N803   C1101   1.348   .     A
O805   Cr1009  1.954   .     S
C806   C807    1.458   .     S
C806   O809    1.217   .     D
C806   O810    1.406   .     S
C807   N808    1.327   .     A
N808   Cr1010  1.956   .     S
N808   C1102   1.348   .     A
O810   Cr1010  1.954   .     S
C811   C812    1.458   .     S
C811   O814    1.217   .     D
C811   O815    1.406   .     S
C812   N813    1.327   .     A
N813   Cr1011  1.956   .     S
N813   C1103   1.348   .     A
O815   Cr1011  1.954   .     S
C816   C817    1.458   .     S
C816   O819    1.217   .     D
C816   O820    1.406   .     S
C817   N818    1.327   .     A
N818   Cr1012  1.956   .     S
N818   C1104   1.348   .     A
O820   Cr1012  1.954   .     S
C821   C822    1.458   .     S
C821   O824    1.217   .     D
C821   O825    1.406   .     S
C822   N823    1.327   .     A
N823   Cr1021  1.956   .     S
N823   C1097   1.348   .     A
O825   Cr1021  1.954   .     S
C826   C827    1.458   .     S
C826   O829    1.217   .     D
C826   O830    1.406   .     S
C827   N828    1.327   .     A
N828   Cr1022  1.956   .     S
N828   C1098   1.348   .     A
O830   Cr1022  1.954   .     S
C831   C832    1.458   .     S
C831   O834    1.217   .     D
C831   O835    1.406   .     S
C832   N833    1.327   .     A
N833   Cr1023  1.956   .     S
N833   C1099   1.348   .     A
O835   Cr1023  1.954   .     S
C836   C837    1.458   .     S
C836   O839    1.217   .     D
C836   O840    1.406   .     S
C837   N838    1.327   .     A
N838   Cr1024  1.956   .     S
N838   C1100   1.348   .     A
O840   Cr1024  1.954   .     S
C841   C842    1.458   .     S
C841   O844    1.217   .     D
C841   O845    1.406   .     S
C842   N843    1.327   .     A
N843   Cr1013  1.956   .     S
N843   C1093   1.348   .     A
O845   Cr1013  1.954   .     S
C846   C847    1.458   .     S
C846   O849    1.217   .     D
C846   O850    1.406   .     S
C847   N848    1.327   .     A
N848   Cr1014  1.956   .     S
N848   C1094   1.348   .     A
O850   Cr1014  1.954   .     S
C851   C852    1.458   .     S
C851   O854    1.217   .     D
C851   O855    1.406   .     S
C852   N853    1.327   .     A
N853   Cr1015  1.956   .     S
N853   C1095   1.348   .     A
O855   Cr1015  1.954   .     S
C856   C857    1.458   .     S
C856   O859    1.217   .     D
C856   O860    1.406   .     S
C857   N858    1.327   .     A
N858   Cr1016  1.956   .     S
N858   C1096   1.348   .     A
O860   Cr1016  1.954   .     S
C861   C862    1.458   .     S
C861   O864    1.217   .     D
C861   O865    1.406   .     S
C862   N863    1.327   .     A
N863   Cr1017  1.956   .     S
N863   C1089   1.348   .     A
O865   Cr1017  1.954   .     S
C866   C867    1.458   .     S
C866   O869    1.217   .     D
C866   O870    1.406   .     S
C867   N868    1.327   .     A
N868   Cr1018  1.956   .     S
N868   C1090   1.348   .     A
O870   Cr1018  1.954   .     S
C871   C872    1.458   .     S
C871   O874    1.217   .     D
C871   O875    1.406   .     S
C872   N873    1.327   .     A
N873   Cr1019  1.956   .     S
N873   C1091   1.348   .     A
O875   Cr1019  1.954   .     S
C876   C877    1.458   .     S
C876   O879    1.217   .     D
C876   O880    1.406   .     S
C877   N878    1.327   .     A
N878   Cr1020  1.956   .     S
N878   C1092   1.348   .     A
O880   Cr1020  1.954   .     S
C881   C882    1.458   .     S
C881   O884    1.217   .     D
C881   O885    1.406   .     S
C882   N883    1.327   .     A
N883   Cr1009  1.956   .     S
N883   C1117   1.348   .     A
O885   Cr1009  1.954   .     S
C886   C887    1.458   .     S
C886   O889    1.217   .     D
C886   O890    1.406   .     S
C887   N888    1.327   .     A
N888   Cr1010  1.956   .     S
N888   C1118   1.348   .     A
O890   Cr1010  1.954   .     S
C891   C892    1.458   .     S
C891   O894    1.217   .     D
C891   O895    1.406   .     S
C892   N893    1.327   .     A
N893   Cr1011  1.956   .     S
N893   C1119   1.348   .     A
O895   Cr1011  1.954   .     S
C896   C897    1.458   .     S
C896   O899    1.217   .     D
C896   O900    1.406   .     S
C897   N898    1.327   .     A
N898   Cr1012  1.956   .     S
N898   C1120   1.348   .     A
O900   Cr1012  1.954   .     S
C901   C902    1.458   .     S
C901   O904    1.217   .     D
C901   O905    1.406   .     S
C902   N903    1.327   .     A
N903   Cr1017  1.956   .     S
N903   C1113   1.348   .     A
O905   Cr1017  1.954   .     S
C906   C907    1.458   .     S
C906   O909    1.217   .     D
C906   O910    1.406   .     S
C907   N908    1.327   .     A
N908   Cr1018  1.956   .     S
N908   C1114   1.348   .     A
O910   Cr1018  1.954   .     S
C911   C912    1.458   .     S
C911   O914    1.217   .     D
C911   O915    1.406   .     S
C912   N913    1.327   .     A
N913   Cr1019  1.956   .     S
N913   C1115   1.348   .     A
O915   Cr1019  1.954   .     S
C916   C917    1.458   .     S
C916   O919    1.217   .     D
C916   O920    1.406   .     S
C917   N918    1.327   .     A
N918   Cr1020  1.956   .     S
N918   C1116   1.348   .     A
O920   Cr1020  1.954   .     S
C921   C922    1.458   .     S
C921   O924    1.217   .     D
C921   O925    1.406   .     S
C922   N923    1.327   .     A
N923   Cr1021  1.956   .     S
N923   C1109   1.348   .     A
O925   Cr1021  1.954   .     S
C926   C927    1.458   .     S
C926   O929    1.217   .     D
C926   O930    1.406   .     S
C927   N928    1.327   .     A
N928   Cr1022  1.956   .     S
N928   C1110   1.348   .     A
O930   Cr1022  1.954   .     S
C931   C932    1.458   .     S
C931   O934    1.217   .     D
C931   O935    1.406   .     S
C932   N933    1.327   .     A
N933   Cr1023  1.956   .     S
N933   C1111   1.348   .     A
O935   Cr1023  1.954   .     S
C936   C937    1.458   .     S
C936   O939    1.217   .     D
C936   O940    1.406   .     S
C937   N938    1.327   .     A
N938   Cr1024  1.956   .     S
N938   C1112   1.348   .     A
O940   Cr1024  1.954   .     S
C941   C942    1.458   .     S
C941   O944    1.217   .     D
C941   O945    1.406   .     S
C942   N943    1.327   .     A
N943   Cr1013  1.956   .     S
N943   C1105   1.348   .     A
O945   Cr1013  1.954   .     S
C946   C947    1.458   .     S
C946   O949    1.217   .     D
C946   O950    1.406   .     S
C947   N948    1.327   .     A
N948   Cr1014  1.956   .     S
N948   C1106   1.348   .     A
O950   Cr1014  1.954   .     S
C951   C952    1.458   .     S
C951   O954    1.217   .     D
C951   O955    1.406   .     S
C952   N953    1.327   .     A
N953   Cr1015  1.956   .     S
N953   C1107   1.348   .     A
O955   Cr1015  1.954   .     S
C956   C957    1.458   .     S
C956   O959    1.217   .     D
C956   O960    1.406   .     S
C957   N958    1.327   .     A
N958   Cr1016  1.956   .     S
N958   C1108   1.348   .     A
O960   Cr1016  1.954   .     S
C1025  H1121   1.081   .     S
C1026  H1122   1.081   .     S
C1027  H1123   1.081   .     S
C1028  H1124   1.081   .     S
C1029  H1125   1.081   .     S
C1030  H1126   1.081   .     S
C1031  H1127   1.081   .     S
C1032  H1128   1.081   .     S
C1033  H1129   1.081   .     S
C1034  H1130   1.081   .     S
C1035  H1131   1.081   .     S
C1036  H1132   1.081   .     S
C1037  H1133   1.081   .     S
C1038  H1134   1.081   .     S
C1039  H1135   1.081   .     S
C1040  H1136   1.081   .     S
C1041  H1137   1.081   .     S
C1042  H1138   1.081   .     S
C1043  H1139   1.081   .     S
C1044  H1140   1.081   .     S
C1045  H1141   1.081   .     S
C1046  H1142   1.081   .     S
C1047  H1143   1.081   .     S
C1048  H1144   1.081   .     S
C1049  H1145   1.081   .     S
C1050  H1146   1.081   .     S
C1051  H1147   1.081   .     S
C1052  H1148   1.081   .     S
C1053  H1149   1.081   .     S
C1054  H1150   1.081   .     S
C1055  H1151   1.081   .     S
C1056  H1152   1.081   .     S
C1057  H1153   1.081   .     S
C1058  H1154   1.081   .     S
C1059  H1155   1.081   .     S
C1060  H1156   1.081   .     S
C1061  H1157   1.081   .     S
C1062  H1158   1.081   .     S
C1063  H1159   1.081   .     S
C1064  H1160   1.081   .     S
C1065  H1161   1.081   .     S
C1066  H1162   1.081   .     S
C1067  H1163   1.081   .     S
C1068  H1164   1.081   .     S
C1069  H1165   1.081   .     S
C1070  H1166   1.081   .     S
C1071  H1167   1.081   .     S
C1072  H1168   1.081   .     S
C1073  H1169   1.081   .     S
C1074  H1170   1.081   .     S
C1075  H1171   1.081   .     S
C1076  H1172   1.081   .     S
C1077  H1173   1.081   .     S
C1078  H1174   1.081   .     S
C1079  H1175   1.081   .     S
C1080  H1176   1.081   .     S
C1081  H1177   1.081   .     S
C1082  H1178   1.081   .     S
C1083  H1179   1.081   .     S
C1084  H1180   1.081   .     S
C1085  H1181   1.081   .     S
C1086  H1182   1.081   .     S
C1087  H1183   1.081   .     S
C1088  H1184   1.081   .     S
C1089  H1185   1.081   .     S
C1090  H1186   1.081   .     S
C1091  H1187   1.081   .     S
C1092  H1188   1.081   .     S
C1093  H1189   1.081   .     S
C1094  H1190   1.081   .     S
C1095  H1191   1.081   .     S
C1096  H1192   1.081   .     S
C1097  H1193   1.081   .     S
C1098  H1194   1.081   .     S
C1099  H1195   1.081   .     S
C1100  H1196   1.081   .     S
C1101  H1197   1.081   .     S
C1102  H1198   1.081   .     S
C1103  H1199   1.081   .     S
C1104  H1200   1.081   .     S
C1105  H1201   1.081   .     S
C1106  H1202   1.081   .     S
C1107  H1203   1.081   .     S
C1108  H1204   1.081   .     S
C1109  H1205   1.081   .     S
C1110  H1206   1.081   .     S
C1111  H1207   1.081   .     S
C1112  H1208   1.081   .     S
C1113  H1209   1.081   .     S
C1114  H1210   1.081   .     S
C1115  H1211   1.081   .     S
C1116  H1212   1.081   .     S
C1117  H1213   1.081   .     S
C1118  H1214   1.081   .     S
C1119  H1215   1.081   .     S
C1120  H1216   1.081   .     S
