data_MAMXUX_FSR
_audit_creation_date              2024-06-11
_audit_creation_method            'Materials Studio'
_symmetry_space_group_name_H-M    'P1'
_symmetry_Int_Tables_number       1
_symmetry_cell_setting            triclinic
loop_
_symmetry_equiv_pos_as_xyz
  x,y,z
_cell_length_a                    20.6518
_cell_length_b                    9.8071
_cell_length_c                    15.1637
_cell_angle_alpha                 90.0000
_cell_angle_beta                  90.0000
_cell_angle_gamma                 90.0000
loop_
_atom_site_label
_atom_site_type_symbol
_atom_site_fract_x
_atom_site_fract_y
_atom_site_fract_z
_atom_site_U_iso_or_equiv
_atom_site_adp_type
_atom_site_occupancy
Cu1    Cu    0.31832   0.72472   0.51310   0.02207  Uani   1.00
S2     S     0.17538   0.57848   0.51306   0.02137  Uani   1.00
O3     O     0.20928   0.44670   0.51248   0.02457  Uani   1.00
O4     O     0.13369   0.59110   0.43430   0.02577  Uani   1.00
O5     O     0.22193   0.69270   0.51200   0.03020  Uani   1.00
O6     O     0.13430   0.59000   0.59280   0.02830  Uani   1.00
N7     N     0.32212   0.29190   0.88270   0.02583  Uani   1.00
N8     N     0.33070   0.22780   0.74330   0.02673  Uani   1.00
H9     H     0.33427   0.17393   0.69714   0.03200  Uiso   1.00
N10    N     0.31989   0.71120   0.64330   0.02593  Uani   1.00
N11    N     0.32220   0.77590   0.78280   0.02910  Uani   1.00
H12    H     0.32313   0.82998   0.82912   0.03500  Uiso   1.00
C13    C     0.32080   0.40820   0.83090   0.02433  Uani   1.00
C14    C     0.32530   0.36700   0.74120   0.02417  Uani   1.00
N15    N     0.41450   0.71550   0.51620   0.04100  Uani   1.00
C16    C     0.32240   0.45800   0.67070   0.02510  Uani   1.00
H17    H     0.32191   0.42901   0.61095   0.03000  Uiso   1.00
C18    C     0.32940   0.18800   0.82800   0.02767  Uani   1.00
H19    H     0.33323   0.09585   0.84646   0.03300  Uiso   1.00
C20    C     0.31590   0.54410   0.85470   0.02900  Uani   1.00
H21    H     0.31017   0.57303   0.91398   0.03500  Uiso   1.00
C22    C     0.32040   0.59340   0.69480   0.02567  Uani   1.00
C23    C     0.32020   0.63430   0.78460   0.02467  Uani   1.00
C24    C     0.32240   0.81500   0.69920   0.02967  Uani   1.00
H25    H     0.32427   0.90774   0.68121   0.03500  Uiso   1.00
N26    N     0.51710   0.77230   0.52730   0.05233  Uani   1.00
H27    H     0.55101   0.82550   0.53418   0.06300  Uiso   1.00
C28    C     0.51700   0.63160   0.51260   0.04367  Uani   1.00
C29    C     0.45290   0.81020   0.52890   0.05433  Uani   1.00
H30    H     0.43934   0.90140   0.53887   0.06500  Uiso   1.00
C31    C     0.45100   0.59430   0.50720   0.03967  Uani   1.00
C32    C     0.56680   0.54120   0.50410   0.04500  Uani   1.00
H33    H     0.61086   0.56913   0.50586   0.05400  Uiso   1.00
Cu34   Cu    0.18168   0.77528   0.01310   0.02207  Uani   1.00
S35    S     0.32462   0.92152   0.01306   0.02137  Uani   1.00
O36    O     0.29072   0.05330   0.01248   0.02457  Uani   1.00
O37    O     0.36631   0.90890   0.93430   0.02577  Uani   1.00
O38    O     0.27807   0.80730   0.01200   0.03020  Uani   1.00
O39    O     0.36570   0.91000   0.09280   0.02830  Uani   1.00
N40    N     0.17788   0.20810   0.38270   0.02583  Uani   1.00
N41    N     0.16930   0.27220   0.24330   0.02673  Uani   1.00
H42    H     0.16573   0.32607   0.19714   0.03200  Uiso   1.00
N43    N     0.18011   0.78880   0.14330   0.02593  Uani   1.00
N44    N     0.17780   0.72410   0.28280   0.02910  Uani   1.00
H45    H     0.17687   0.67002   0.32912   0.03500  Uiso   1.00
C46    C     0.17920   0.09180   0.33090   0.02433  Uani   1.00
C47    C     0.17470   0.13300   0.24120   0.02417  Uani   1.00
N48    N     0.08550   0.78450   0.01620   0.04100  Uani   1.00
C49    C     0.17760   0.04200   0.17070   0.02510  Uani   1.00
H50    H     0.17809   0.07099   0.11095   0.03000  Uiso   1.00
C51    C     0.17060   0.31200   0.32800   0.02767  Uani   1.00
H52    H     0.16677   0.40415   0.34646   0.03300  Uiso   1.00
C53    C     0.18410   0.95590   0.35470   0.02900  Uani   1.00
H54    H     0.18983   0.92697   0.41398   0.03500  Uiso   1.00
C55    C     0.17960   0.90660   0.19480   0.02567  Uani   1.00
C56    C     0.17980   0.86570   0.28460   0.02467  Uani   1.00
C57    C     0.17760   0.68500   0.19920   0.02967  Uani   1.00
H58    H     0.17573   0.59226   0.18121   0.03500  Uiso   1.00
N59    N     0.98290   0.72770   0.02730   0.05233  Uani   1.00
H60    H     0.94899   0.67450   0.03418   0.06300  Uiso   1.00
C61    C     0.98300   0.86840   0.01260   0.04367  Uani   1.00
C62    C     0.04710   0.68980   0.02890   0.05433  Uani   1.00
H63    H     0.06066   0.59860   0.03887   0.06500  Uiso   1.00
C64    C     0.04900   0.90570   0.00720   0.03967  Uani   1.00
C65    C     0.93320   0.95880   0.00410   0.04500  Uani   1.00
H66    H     0.88914   0.93087   0.00586   0.05400  Uiso   1.00
Cu67   Cu    0.68168   0.72472   0.98690   0.02207  Uani   1.00
S68    S     0.82462   0.57848   0.98694   0.02137  Uani   1.00
O69    O     0.79072   0.44670   0.98752   0.02457  Uani   1.00
O70    O     0.86631   0.59110   0.06570   0.02577  Uani   1.00
O71    O     0.77807   0.69270   0.98800   0.03020  Uani   1.00
O72    O     0.86570   0.59000   0.90720   0.02830  Uani   1.00
N73    N     0.67788   0.29190   0.61730   0.02583  Uani   1.00
N74    N     0.66930   0.22780   0.75670   0.02673  Uani   1.00
H75    H     0.66573   0.17393   0.80286   0.03200  Uiso   1.00
N76    N     0.68011   0.71120   0.85670   0.02593  Uani   1.00
N77    N     0.67780   0.77590   0.71720   0.02910  Uani   1.00
H78    H     0.67687   0.82998   0.67088   0.03500  Uiso   1.00
C79    C     0.67920   0.40820   0.66910   0.02433  Uani   1.00
C80    C     0.67470   0.36700   0.75880   0.02417  Uani   1.00
N81    N     0.58550   0.71550   0.98380   0.04100  Uani   1.00
C82    C     0.67760   0.45800   0.82930   0.02510  Uani   1.00
H83    H     0.67809   0.42901   0.88905   0.03000  Uiso   1.00
C84    C     0.67060   0.18800   0.67200   0.02767  Uani   1.00
H85    H     0.66677   0.09585   0.65354   0.03300  Uiso   1.00
C86    C     0.68410   0.54410   0.64530   0.02900  Uani   1.00
H87    H     0.68983   0.57303   0.58602   0.03500  Uiso   1.00
C88    C     0.67960   0.59340   0.80520   0.02567  Uani   1.00
C89    C     0.67980   0.63430   0.71540   0.02467  Uani   1.00
C90    C     0.67760   0.81500   0.80080   0.02967  Uani   1.00
H91    H     0.67573   0.90774   0.81879   0.03500  Uiso   1.00
N92    N     0.48290   0.77230   0.97270   0.05233  Uani   1.00
H93    H     0.44899   0.82550   0.96582   0.06300  Uiso   1.00
C94    C     0.48300   0.63160   0.98740   0.04367  Uani   1.00
C95    C     0.54710   0.81020   0.97110   0.05433  Uani   1.00
H96    H     0.56066   0.90140   0.96113   0.06500  Uiso   1.00
C97    C     0.54900   0.59430   0.99280   0.03967  Uani   1.00
C98    C     0.43320   0.54120   0.99590   0.04500  Uani   1.00
H99    H     0.38914   0.56913   0.99414   0.05400  Uiso   1.00
Cu100  Cu    0.81832   0.77528   0.48690   0.02207  Uani   1.00
S101   S     0.67538   0.92152   0.48694   0.02137  Uani   1.00
O102   O     0.70928   0.05330   0.48752   0.02457  Uani   1.00
O103   O     0.63369   0.90890   0.56570   0.02577  Uani   1.00
O104   O     0.72193   0.80730   0.48800   0.03020  Uani   1.00
O105   O     0.63430   0.91000   0.40720   0.02830  Uani   1.00
N106   N     0.82212   0.20810   0.11730   0.02583  Uani   1.00
N107   N     0.83070   0.27220   0.25670   0.02673  Uani   1.00
H108   H     0.83427   0.32607   0.30286   0.03200  Uiso   1.00
N109   N     0.81989   0.78880   0.35670   0.02593  Uani   1.00
N110   N     0.82220   0.72410   0.21720   0.02910  Uani   1.00
H111   H     0.82313   0.67002   0.17088   0.03500  Uiso   1.00
C112   C     0.82080   0.09180   0.16910   0.02433  Uani   1.00
C113   C     0.82530   0.13300   0.25880   0.02417  Uani   1.00
N114   N     0.91450   0.78450   0.48380   0.04100  Uani   1.00
C115   C     0.82240   0.04200   0.32930   0.02510  Uani   1.00
H116   H     0.82191   0.07099   0.38905   0.03000  Uiso   1.00
C117   C     0.82940   0.31200   0.17200   0.02767  Uani   1.00
H118   H     0.83323   0.40415   0.15354   0.03300  Uiso   1.00
C119   C     0.81590   0.95590   0.14530   0.02900  Uani   1.00
H120   H     0.81017   0.92697   0.08602   0.03500  Uiso   1.00
C121   C     0.82040   0.90660   0.30520   0.02567  Uani   1.00
C122   C     0.82020   0.86570   0.21540   0.02467  Uani   1.00
C123   C     0.82240   0.68500   0.30080   0.02967  Uani   1.00
H124   H     0.82427   0.59226   0.31879   0.03500  Uiso   1.00
N125   N     0.01710   0.72770   0.47270   0.05233  Uani   1.00
H126   H     0.05101   0.67450   0.46582   0.06300  Uiso   1.00
C127   C     0.01700   0.86840   0.48740   0.04367  Uani   1.00
C128   C     0.95290   0.68980   0.47110   0.05433  Uani   1.00
H129   H     0.93934   0.59860   0.46113   0.06500  Uiso   1.00
C130   C     0.95100   0.90570   0.49280   0.03967  Uani   1.00
C131   C     0.06680   0.95880   0.49590   0.04500  Uani   1.00
H132   H     0.11086   0.93087   0.49414   0.05400  Uiso   1.00
Cu133  Cu    0.68168   0.27528   0.48690   0.02207  Uani   1.00
S134   S     0.82462   0.42152   0.48694   0.02137  Uani   1.00
O135   O     0.79072   0.55330   0.48752   0.02457  Uani   1.00
O136   O     0.86631   0.40890   0.56570   0.02577  Uani   1.00
O137   O     0.77807   0.30730   0.48800   0.03020  Uani   1.00
O138   O     0.86570   0.41000   0.40720   0.02830  Uani   1.00
N139   N     0.67788   0.70810   0.11730   0.02583  Uani   1.00
N140   N     0.66930   0.77220   0.25670   0.02673  Uani   1.00
H141   H     0.66573   0.82607   0.30286   0.03200  Uiso   1.00
N142   N     0.68011   0.28880   0.35670   0.02593  Uani   1.00
N143   N     0.67780   0.22410   0.21720   0.02910  Uani   1.00
H144   H     0.67687   0.17002   0.17088   0.03500  Uiso   1.00
C145   C     0.67920   0.59180   0.16910   0.02433  Uani   1.00
C146   C     0.67470   0.63300   0.25880   0.02417  Uani   1.00
N147   N     0.58550   0.28450   0.48380   0.04100  Uani   1.00
C148   C     0.67760   0.54200   0.32930   0.02510  Uani   1.00
H149   H     0.67809   0.57099   0.38905   0.03000  Uiso   1.00
C150   C     0.67060   0.81200   0.17200   0.02767  Uani   1.00
H151   H     0.66677   0.90415   0.15354   0.03300  Uiso   1.00
C152   C     0.68410   0.45590   0.14530   0.02900  Uani   1.00
H153   H     0.68983   0.42697   0.08602   0.03500  Uiso   1.00
C154   C     0.67960   0.40660   0.30520   0.02567  Uani   1.00
C155   C     0.67980   0.36570   0.21540   0.02467  Uani   1.00
C156   C     0.67760   0.18500   0.30080   0.02967  Uani   1.00
H157   H     0.67573   0.09226   0.31879   0.03500  Uiso   1.00
N158   N     0.48290   0.22770   0.47270   0.05233  Uani   1.00
H159   H     0.44899   0.17450   0.46582   0.06300  Uiso   1.00
C160   C     0.48300   0.36840   0.48740   0.04367  Uani   1.00
C161   C     0.54710   0.18980   0.47110   0.05433  Uani   1.00
H162   H     0.56066   0.09860   0.46113   0.06500  Uiso   1.00
C163   C     0.54900   0.40570   0.49280   0.03967  Uani   1.00
C164   C     0.43320   0.45880   0.49590   0.04500  Uani   1.00
H165   H     0.38914   0.43087   0.49414   0.05400  Uiso   1.00
Cu166  Cu    0.81832   0.22472   0.98690   0.02207  Uani   1.00
S167   S     0.67538   0.07848   0.98694   0.02137  Uani   1.00
O168   O     0.70928   0.94670   0.98752   0.02457  Uani   1.00
O169   O     0.63369   0.09110   0.06570   0.02577  Uani   1.00
O170   O     0.72193   0.19270   0.98800   0.03020  Uani   1.00
O171   O     0.63430   0.09000   0.90720   0.02830  Uani   1.00
N172   N     0.82212   0.79190   0.61730   0.02583  Uani   1.00
N173   N     0.83070   0.72780   0.75670   0.02673  Uani   1.00
H174   H     0.83427   0.67393   0.80286   0.03200  Uiso   1.00
N175   N     0.81989   0.21120   0.85670   0.02593  Uani   1.00
N176   N     0.82220   0.27590   0.71720   0.02910  Uani   1.00
H177   H     0.82313   0.32998   0.67088   0.03500  Uiso   1.00
C178   C     0.82080   0.90820   0.66910   0.02433  Uani   1.00
C179   C     0.82530   0.86700   0.75880   0.02417  Uani   1.00
N180   N     0.91450   0.21550   0.98380   0.04100  Uani   1.00
C181   C     0.82240   0.95800   0.82930   0.02510  Uani   1.00
H182   H     0.82191   0.92901   0.88905   0.03000  Uiso   1.00
C183   C     0.82940   0.68800   0.67200   0.02767  Uani   1.00
H184   H     0.83323   0.59585   0.65354   0.03300  Uiso   1.00
C185   C     0.81590   0.04410   0.64530   0.02900  Uani   1.00
H186   H     0.81017   0.07303   0.58602   0.03500  Uiso   1.00
C187   C     0.82040   0.09340   0.80520   0.02567  Uani   1.00
C188   C     0.82020   0.13430   0.71540   0.02467  Uani   1.00
C189   C     0.82240   0.31500   0.80080   0.02967  Uani   1.00
H190   H     0.82427   0.40774   0.81879   0.03500  Uiso   1.00
N191   N     0.01710   0.27230   0.97270   0.05233  Uani   1.00
H192   H     0.05101   0.32550   0.96582   0.06300  Uiso   1.00
C193   C     0.01700   0.13160   0.98740   0.04367  Uani   1.00
C194   C     0.95290   0.31020   0.97110   0.05433  Uani   1.00
H195   H     0.93934   0.40140   0.96113   0.06500  Uiso   1.00
C196   C     0.95100   0.09430   0.99280   0.03967  Uani   1.00
C197   C     0.06680   0.04120   0.99590   0.04500  Uani   1.00
H198   H     0.11086   0.06913   0.99414   0.05400  Uiso   1.00
Cu199  Cu    0.31832   0.27528   0.01310   0.02207  Uani   1.00
S200   S     0.17538   0.42152   0.01306   0.02137  Uani   1.00
O201   O     0.20928   0.55330   0.01248   0.02457  Uani   1.00
O202   O     0.13369   0.40890   0.93430   0.02577  Uani   1.00
O203   O     0.22193   0.30730   0.01200   0.03020  Uani   1.00
O204   O     0.13430   0.41000   0.09280   0.02830  Uani   1.00
N205   N     0.32212   0.70810   0.38270   0.02583  Uani   1.00
N206   N     0.33070   0.77220   0.24330   0.02673  Uani   1.00
H207   H     0.33427   0.82607   0.19714   0.03200  Uiso   1.00
N208   N     0.31989   0.28880   0.14330   0.02593  Uani   1.00
N209   N     0.32220   0.22410   0.28280   0.02910  Uani   1.00
H210   H     0.32313   0.17002   0.32912   0.03500  Uiso   1.00
C211   C     0.32080   0.59180   0.33090   0.02433  Uani   1.00
C212   C     0.32530   0.63300   0.24120   0.02417  Uani   1.00
N213   N     0.41450   0.28450   0.01620   0.04100  Uani   1.00
C214   C     0.32240   0.54200   0.17070   0.02510  Uani   1.00
H215   H     0.32191   0.57099   0.11095   0.03000  Uiso   1.00
C216   C     0.32940   0.81200   0.32800   0.02767  Uani   1.00
H217   H     0.33323   0.90415   0.34646   0.03300  Uiso   1.00
C218   C     0.31590   0.45590   0.35470   0.02900  Uani   1.00
H219   H     0.31017   0.42697   0.41398   0.03500  Uiso   1.00
C220   C     0.32040   0.40660   0.19480   0.02567  Uani   1.00
C221   C     0.32020   0.36570   0.28460   0.02467  Uani   1.00
C222   C     0.32240   0.18500   0.19920   0.02967  Uani   1.00
H223   H     0.32427   0.09226   0.18121   0.03500  Uiso   1.00
N224   N     0.51710   0.22770   0.02730   0.05233  Uani   1.00
H225   H     0.55101   0.17450   0.03418   0.06300  Uiso   1.00
C226   C     0.51700   0.36840   0.01260   0.04367  Uani   1.00
C227   C     0.45290   0.18980   0.02890   0.05433  Uani   1.00
H228   H     0.43934   0.09860   0.03887   0.06500  Uiso   1.00
C229   C     0.45100   0.40570   0.00720   0.03967  Uani   1.00
C230   C     0.56680   0.45880   0.00410   0.04500  Uani   1.00
H231   H     0.61086   0.43087   0.00586   0.05400  Uiso   1.00
Cu232  Cu    0.18168   0.22472   0.51310   0.02207  Uani   1.00
S233   S     0.32462   0.07848   0.51306   0.02137  Uani   1.00
O234   O     0.29072   0.94670   0.51248   0.02457  Uani   1.00
O235   O     0.36631   0.09110   0.43430   0.02577  Uani   1.00
O236   O     0.27807   0.19270   0.51200   0.03020  Uani   1.00
O237   O     0.36570   0.09000   0.59280   0.02830  Uani   1.00
N238   N     0.17788   0.79190   0.88270   0.02583  Uani   1.00
N239   N     0.16930   0.72780   0.74330   0.02673  Uani   1.00
H240   H     0.16573   0.67393   0.69714   0.03200  Uiso   1.00
N241   N     0.18011   0.21120   0.64330   0.02593  Uani   1.00
N242   N     0.17780   0.27590   0.78280   0.02910  Uani   1.00
H243   H     0.17687   0.32998   0.82912   0.03500  Uiso   1.00
C244   C     0.17920   0.90820   0.83090   0.02433  Uani   1.00
C245   C     0.17470   0.86700   0.74120   0.02417  Uani   1.00
N246   N     0.08550   0.21550   0.51620   0.04100  Uani   1.00
C247   C     0.17760   0.95800   0.67070   0.02510  Uani   1.00
H248   H     0.17809   0.92901   0.61095   0.03000  Uiso   1.00
C249   C     0.17060   0.68800   0.82800   0.02767  Uani   1.00
H250   H     0.16677   0.59585   0.84646   0.03300  Uiso   1.00
C251   C     0.18410   0.04410   0.85470   0.02900  Uani   1.00
H252   H     0.18983   0.07303   0.91398   0.03500  Uiso   1.00
C253   C     0.17960   0.09340   0.69480   0.02567  Uani   1.00
C254   C     0.17980   0.13430   0.78460   0.02467  Uani   1.00
C255   C     0.17760   0.31500   0.69920   0.02967  Uani   1.00
H256   H     0.17573   0.40774   0.68121   0.03500  Uiso   1.00
N257   N     0.98290   0.27230   0.52730   0.05233  Uani   1.00
H258   H     0.94899   0.32550   0.53418   0.06300  Uiso   1.00
C259   C     0.98300   0.13160   0.51260   0.04367  Uani   1.00
C260   C     0.04710   0.31020   0.52890   0.05433  Uani   1.00
H261   H     0.06066   0.40140   0.53887   0.06500  Uiso   1.00
C262   C     0.04900   0.09430   0.50720   0.03967  Uani   1.00
C263   C     0.93320   0.04120   0.50410   0.04500  Uani   1.00
H264   H     0.88914   0.06913   0.50586   0.05400  Uiso   1.00
loop_
_atom_site_aniso_label
_atom_site_aniso_U_11
_atom_site_aniso_U_22
_atom_site_aniso_U_33
_atom_site_aniso_U_12
_atom_site_aniso_U_13
_atom_site_aniso_U_23
Cu1       0.04060   0.01510   0.01050   0.00410  -0.00060  -0.00020
S2        0.04010   0.01140   0.01260   0.00060   0.00030  -0.00020
O3        0.03950   0.01570   0.01850   0.00380  -0.00110   0.00020
O4        0.04290   0.02030   0.01410   0.00420  -0.00190   0.00280
O5        0.04400   0.01790   0.02870  -0.00380  -0.00140  -0.00020
O6        0.04900   0.02060   0.01530   0.00200   0.00470  -0.00120
N7        0.05300   0.01260   0.01190  -0.00280   0.00180   0.00230
N8        0.05100   0.01460   0.01460  -0.00050  -0.00110  -0.00100
N10       0.05000   0.01160   0.01620   0.00240  -0.00050   0.00070
N11       0.05800   0.01330   0.01600   0.00040   0.00100  -0.00260
C13       0.04700   0.01900   0.00700  -0.00270   0.00040   0.00140
C14       0.04200   0.01450   0.01600   0.00090   0.00050  -0.00210
N15       0.03800   0.05700   0.02800   0.00500  -0.00190  -0.00550
C16       0.04900   0.01700   0.00930  -0.00060  -0.00130  -0.00120
C18       0.05300   0.01800   0.01200  -0.00070   0.00190  -0.00240
C20       0.05900   0.01500   0.01300  -0.00280   0.00350  -0.00080
C22       0.04700   0.01700   0.01300   0.00020  -0.00070   0.00190
C23       0.04600   0.01500   0.01300   0.00040   0.00110  -0.00220
C24       0.05600   0.01400   0.01900   0.00080  -0.00070   0.00050
N26       0.05500   0.04700   0.05500  -0.00100  -0.00500  -0.00200
C28       0.05500   0.03700   0.03900   0.00000  -0.00100  -0.00200
C29       0.07200   0.03900   0.05200   0.01300   0.01500   0.00600
C31       0.04800   0.04300   0.02800  -0.00200   0.00100  -0.00200
C32       0.04200   0.05400   0.03900  -0.00300   0.00100   0.00100
Cu34      0.04060   0.01510   0.01050   0.00410   0.00060   0.00020
S35       0.04010   0.01140   0.01260   0.00060  -0.00030   0.00020
O36       0.03950   0.01570   0.01850   0.00380   0.00110  -0.00020
O37       0.04290   0.02030   0.01410   0.00420   0.00190  -0.00280
O38       0.04400   0.01790   0.02870  -0.00380   0.00140   0.00020
O39       0.04900   0.02060   0.01530   0.00200  -0.00470   0.00120
N40       0.05300   0.01260   0.01190  -0.00280  -0.00180  -0.00230
N41       0.05100   0.01460   0.01460  -0.00050   0.00110   0.00100
N43       0.05000   0.01160   0.01620   0.00240   0.00050  -0.00070
N44       0.05800   0.01330   0.01600   0.00040  -0.00100   0.00260
C46       0.04700   0.01900   0.00700  -0.00270  -0.00040  -0.00140
C47       0.04200   0.01450   0.01600   0.00090  -0.00050   0.00210
N48       0.03800   0.05700   0.02800   0.00500   0.00190   0.00550
C49       0.04900   0.01700   0.00930  -0.00060   0.00130   0.00120
C51       0.05300   0.01800   0.01200  -0.00070  -0.00190   0.00240
C53       0.05900   0.01500   0.01300  -0.00280  -0.00350   0.00080
C55       0.04700   0.01700   0.01300   0.00020   0.00070  -0.00190
C56       0.04600   0.01500   0.01300   0.00040  -0.00110   0.00220
C57       0.05600   0.01400   0.01900   0.00080   0.00070  -0.00050
N59       0.05500   0.04700   0.05500  -0.00100   0.00500   0.00200
C61       0.05500   0.03700   0.03900   0.00000   0.00100   0.00200
C62       0.07200   0.03900   0.05200   0.01300  -0.01500  -0.00600
C64       0.04800   0.04300   0.02800  -0.00200  -0.00100   0.00200
C65       0.04200   0.05400   0.03900  -0.00300  -0.00100  -0.00100
Cu67      0.04060   0.01510   0.01050  -0.00410  -0.00060   0.00020
S68       0.04010   0.01140   0.01260  -0.00060   0.00030   0.00020
O69       0.03950   0.01570   0.01850  -0.00380  -0.00110  -0.00020
O70       0.04290   0.02030   0.01410  -0.00420  -0.00190  -0.00280
O71       0.04400   0.01790   0.02870   0.00380  -0.00140   0.00020
O72       0.04900   0.02060   0.01530  -0.00200   0.00470   0.00120
N73       0.05300   0.01260   0.01190   0.00280   0.00180  -0.00230
N74       0.05100   0.01460   0.01460   0.00050  -0.00110   0.00100
N76       0.05000   0.01160   0.01620  -0.00240  -0.00050  -0.00070
N77       0.05800   0.01330   0.01600  -0.00040   0.00100   0.00260
C79       0.04700   0.01900   0.00700   0.00270   0.00040  -0.00140
C80       0.04200   0.01450   0.01600  -0.00090   0.00050   0.00210
N81       0.03800   0.05700   0.02800  -0.00500  -0.00190   0.00550
C82       0.04900   0.01700   0.00930   0.00060  -0.00130   0.00120
C84       0.05300   0.01800   0.01200   0.00070   0.00190   0.00240
C86       0.05900   0.01500   0.01300   0.00280   0.00350   0.00080
C88       0.04700   0.01700   0.01300  -0.00020  -0.00070  -0.00190
C89       0.04600   0.01500   0.01300  -0.00040   0.00110   0.00220
C90       0.05600   0.01400   0.01900  -0.00080  -0.00070  -0.00050
N92       0.05500   0.04700   0.05500   0.00100  -0.00500   0.00200
C94       0.05500   0.03700   0.03900   0.00000  -0.00100   0.00200
C95       0.07200   0.03900   0.05200  -0.01300   0.01500  -0.00600
C97       0.04800   0.04300   0.02800   0.00200   0.00100   0.00200
C98       0.04200   0.05400   0.03900   0.00300   0.00100  -0.00100
Cu100     0.04060   0.01510   0.01050  -0.00410   0.00060  -0.00020
S101      0.04010   0.01140   0.01260  -0.00060  -0.00030  -0.00020
O102      0.03950   0.01570   0.01850  -0.00380   0.00110   0.00020
O103      0.04290   0.02030   0.01410  -0.00420   0.00190   0.00280
O104      0.04400   0.01790   0.02870   0.00380   0.00140  -0.00020
O105      0.04900   0.02060   0.01530  -0.00200  -0.00470  -0.00120
N106      0.05300   0.01260   0.01190   0.00280  -0.00180   0.00230
N107      0.05100   0.01460   0.01460   0.00050   0.00110  -0.00100
N109      0.05000   0.01160   0.01620  -0.00240   0.00050   0.00070
N110      0.05800   0.01330   0.01600  -0.00040  -0.00100  -0.00260
C112      0.04700   0.01900   0.00700   0.00270  -0.00040   0.00140
C113      0.04200   0.01450   0.01600  -0.00090  -0.00050  -0.00210
N114      0.03800   0.05700   0.02800  -0.00500   0.00190  -0.00550
C115      0.04900   0.01700   0.00930   0.00060   0.00130  -0.00120
C117      0.05300   0.01800   0.01200   0.00070  -0.00190  -0.00240
C119      0.05900   0.01500   0.01300   0.00280  -0.00350  -0.00080
C121      0.04700   0.01700   0.01300  -0.00020   0.00070   0.00190
C122      0.04600   0.01500   0.01300  -0.00040  -0.00110  -0.00220
C123      0.05600   0.01400   0.01900  -0.00080   0.00070   0.00050
N125      0.05500   0.04700   0.05500   0.00100   0.00500  -0.00200
C127      0.05500   0.03700   0.03900   0.00000   0.00100  -0.00200
C128      0.07200   0.03900   0.05200  -0.01300  -0.01500   0.00600
C130      0.04800   0.04300   0.02800   0.00200  -0.00100  -0.00200
C131      0.04200   0.05400   0.03900   0.00300  -0.00100   0.00100
Cu133     0.04060   0.01510   0.01050   0.00410  -0.00060  -0.00020
S134      0.04010   0.01140   0.01260   0.00060   0.00030  -0.00020
O135      0.03950   0.01570   0.01850   0.00380  -0.00110   0.00020
O136      0.04290   0.02030   0.01410   0.00420  -0.00190   0.00280
O137      0.04400   0.01790   0.02870  -0.00380  -0.00140  -0.00020
O138      0.04900   0.02060   0.01530   0.00200   0.00470  -0.00120
N139      0.05300   0.01260   0.01190  -0.00280   0.00180   0.00230
N140      0.05100   0.01460   0.01460  -0.00050  -0.00110  -0.00100
N142      0.05000   0.01160   0.01620   0.00240  -0.00050   0.00070
N143      0.05800   0.01330   0.01600   0.00040   0.00100  -0.00260
C145      0.04700   0.01900   0.00700  -0.00270   0.00040   0.00140
C146      0.04200   0.01450   0.01600   0.00090   0.00050  -0.00210
N147      0.03800   0.05700   0.02800   0.00500  -0.00190  -0.00550
C148      0.04900   0.01700   0.00930  -0.00060  -0.00130  -0.00120
C150      0.05300   0.01800   0.01200  -0.00070   0.00190  -0.00240
C152      0.05900   0.01500   0.01300  -0.00280   0.00350  -0.00080
C154      0.04700   0.01700   0.01300   0.00020  -0.00070   0.00190
C155      0.04600   0.01500   0.01300   0.00040   0.00110  -0.00220
C156      0.05600   0.01400   0.01900   0.00080  -0.00070   0.00050
N158      0.05500   0.04700   0.05500  -0.00100  -0.00500  -0.00200
C160      0.05500   0.03700   0.03900   0.00000  -0.00100  -0.00200
C161      0.07200   0.03900   0.05200   0.01300   0.01500   0.00600
C163      0.04800   0.04300   0.02800  -0.00200   0.00100  -0.00200
C164      0.04200   0.05400   0.03900  -0.00300   0.00100   0.00100
Cu166     0.04060   0.01510   0.01050   0.00410   0.00060   0.00020
S167      0.04010   0.01140   0.01260   0.00060  -0.00030   0.00020
O168      0.03950   0.01570   0.01850   0.00380   0.00110  -0.00020
O169      0.04290   0.02030   0.01410   0.00420   0.00190  -0.00280
O170      0.04400   0.01790   0.02870  -0.00380   0.00140   0.00020
O171      0.04900   0.02060   0.01530   0.00200  -0.00470   0.00120
N172      0.05300   0.01260   0.01190  -0.00280  -0.00180  -0.00230
N173      0.05100   0.01460   0.01460  -0.00050   0.00110   0.00100
N175      0.05000   0.01160   0.01620   0.00240   0.00050  -0.00070
N176      0.05800   0.01330   0.01600   0.00040  -0.00100   0.00260
C178      0.04700   0.01900   0.00700  -0.00270  -0.00040  -0.00140
C179      0.04200   0.01450   0.01600   0.00090  -0.00050   0.00210
N180      0.03800   0.05700   0.02800   0.00500   0.00190   0.00550
C181      0.04900   0.01700   0.00930  -0.00060   0.00130   0.00120
C183      0.05300   0.01800   0.01200  -0.00070  -0.00190   0.00240
C185      0.05900   0.01500   0.01300  -0.00280  -0.00350   0.00080
C187      0.04700   0.01700   0.01300   0.00020   0.00070  -0.00190
C188      0.04600   0.01500   0.01300   0.00040  -0.00110   0.00220
C189      0.05600   0.01400   0.01900   0.00080   0.00070  -0.00050
N191      0.05500   0.04700   0.05500  -0.00100   0.00500   0.00200
C193      0.05500   0.03700   0.03900   0.00000   0.00100   0.00200
C194      0.07200   0.03900   0.05200   0.01300  -0.01500  -0.00600
C196      0.04800   0.04300   0.02800  -0.00200  -0.00100   0.00200
C197      0.04200   0.05400   0.03900  -0.00300  -0.00100  -0.00100
Cu199     0.04060   0.01510   0.01050  -0.00410  -0.00060   0.00020
S200      0.04010   0.01140   0.01260  -0.00060   0.00030   0.00020
O201      0.03950   0.01570   0.01850  -0.00380  -0.00110  -0.00020
O202      0.04290   0.02030   0.01410  -0.00420  -0.00190  -0.00280
O203      0.04400   0.01790   0.02870   0.00380  -0.00140   0.00020
O204      0.04900   0.02060   0.01530  -0.00200   0.00470   0.00120
N205      0.05300   0.01260   0.01190   0.00280   0.00180  -0.00230
N206      0.05100   0.01460   0.01460   0.00050  -0.00110   0.00100
N208      0.05000   0.01160   0.01620  -0.00240  -0.00050  -0.00070
N209      0.05800   0.01330   0.01600  -0.00040   0.00100   0.00260
C211      0.04700   0.01900   0.00700   0.00270   0.00040  -0.00140
C212      0.04200   0.01450   0.01600  -0.00090   0.00050   0.00210
N213      0.03800   0.05700   0.02800  -0.00500  -0.00190   0.00550
C214      0.04900   0.01700   0.00930   0.00060  -0.00130   0.00120
C216      0.05300   0.01800   0.01200   0.00070   0.00190   0.00240
C218      0.05900   0.01500   0.01300   0.00280   0.00350   0.00080
C220      0.04700   0.01700   0.01300  -0.00020  -0.00070  -0.00190
C221      0.04600   0.01500   0.01300  -0.00040   0.00110   0.00220
C222      0.05600   0.01400   0.01900  -0.00080  -0.00070  -0.00050
N224      0.05500   0.04700   0.05500   0.00100  -0.00500   0.00200
C226      0.05500   0.03700   0.03900   0.00000  -0.00100   0.00200
C227      0.07200   0.03900   0.05200  -0.01300   0.01500  -0.00600
C229      0.04800   0.04300   0.02800   0.00200   0.00100   0.00200
C230      0.04200   0.05400   0.03900   0.00300   0.00100  -0.00100
Cu232     0.04060   0.01510   0.01050  -0.00410   0.00060  -0.00020
S233      0.04010   0.01140   0.01260  -0.00060  -0.00030  -0.00020
O234      0.03950   0.01570   0.01850  -0.00380   0.00110   0.00020
O235      0.04290   0.02030   0.01410  -0.00420   0.00190   0.00280
O236      0.04400   0.01790   0.02870   0.00380   0.00140  -0.00020
O237      0.04900   0.02060   0.01530  -0.00200  -0.00470  -0.00120
N238      0.05300   0.01260   0.01190   0.00280  -0.00180   0.00230
N239      0.05100   0.01460   0.01460   0.00050   0.00110  -0.00100
N241      0.05000   0.01160   0.01620  -0.00240   0.00050   0.00070
N242      0.05800   0.01330   0.01600  -0.00040  -0.00100  -0.00260
C244      0.04700   0.01900   0.00700   0.00270  -0.00040   0.00140
C245      0.04200   0.01450   0.01600  -0.00090  -0.00050  -0.00210
N246      0.03800   0.05700   0.02800  -0.00500   0.00190  -0.00550
C247      0.04900   0.01700   0.00930   0.00060   0.00130  -0.00120
C249      0.05300   0.01800   0.01200   0.00070  -0.00190  -0.00240
C251      0.05900   0.01500   0.01300   0.00280  -0.00350  -0.00080
C253      0.04700   0.01700   0.01300  -0.00020   0.00070   0.00190
C254      0.04600   0.01500   0.01300  -0.00040  -0.00110  -0.00220
C255      0.05600   0.01400   0.01900  -0.00080   0.00070   0.00050
N257      0.05500   0.04700   0.05500   0.00100   0.00500  -0.00200
C259      0.05500   0.03700   0.03900   0.00000   0.00100  -0.00200
C260      0.07200   0.03900   0.05200  -0.01300  -0.01500   0.00600
C262      0.04800   0.04300   0.02800   0.00200  -0.00100  -0.00200
C263      0.04200   0.05400   0.03900   0.00300  -0.00100   0.00100
loop_
_geom_bond_atom_site_label_1
_geom_bond_atom_site_label_2
_geom_bond_distance
_geom_bond_site_symmetry_2
_ccdc_geom_bond_type
Cu1    O5      2.015   .     S
Cu1    N10     1.979   .     S
Cu1    N15     1.989   .     S
Cu1    O234    2.250   .     S
Cu1    N205    1.986   .     S
S2     O3      1.470   .     S
S2     O4      1.477   .     S
S2     O5      1.476   .     S
S2     O6      1.481   .     S
O3     Cu232   2.250   .     S
N7     C13     1.385   .     S
N7     C18     1.322   .     S
N7     Cu199   1.986   1_556 S
N8     H9      0.880   .     S
N8     C14     1.370   .     S
N8     C18     1.343   .     S
N10    C22     1.394   .     S
N10    C24     1.326   .     S
N11    H12     0.880   .     S
N11    C23     1.390   .     S
N11    C24     1.324   .     S
C13    C14     1.422   .     S
C13    C20     1.384   .     S
C14    C16     1.394   .     S
N15    C29     1.236   .     S
N15    C31     1.414   .     S
C16    H17     0.950   .     S
C16    C22     1.378   .     S
C18    H19     0.949   .     S
C20    H21     0.950   .     S
C20    C23     1.386   .     S
C22    C23     1.420   .     S
C24    H25     0.950   .     S
N26    H27     0.879   .     S
N26    C28     1.398   .     S
N26    C29     1.377   .     S
C28    C32     1.364   .     S
C28    C31     1.414   .     S
C29    H30     0.949   .     S
C31    C164    1.389   .     S
C32    H33     0.951   .     S
C32    C163    1.389   .     S
Cu34   O38     2.015   .     S
Cu34   N43     1.979   .     S
Cu34   N48     1.989   .     S
Cu34   O201    2.250   .     S
Cu34   N238    1.986   1_554 S
S35    O36     1.470   1_565 S
S35    O37     1.477   1_554 S
S35    O38     1.476   .     S
S35    O39     1.481   .     S
O36    S35     1.470   1_545 S
O36    Cu199   2.250   .     S
O37    S35     1.477   1_556 S
N40    C46     1.385   .     S
N40    C51     1.322   .     S
N40    Cu232   1.986   .     S
N41    H42     0.880   .     S
N41    C47     1.370   .     S
N41    C51     1.343   .     S
N43    C55     1.394   .     S
N43    C57     1.326   .     S
N44    H45     0.880   .     S
N44    C56     1.390   .     S
N44    C57     1.324   .     S
C46    C47     1.422   .     S
C46    C53     1.384   1_545 S
C47    C49     1.394   .     S
N48    C62     1.236   .     S
N48    C64     1.414   .     S
C49    H50     0.950   .     S
C49    C55     1.378   1_545 S
C51    H52     0.949   .     S
C53    C46     1.384   1_565 S
C53    H54     0.950   .     S
C53    C56     1.386   .     S
C55    C49     1.378   1_565 S
C55    C56     1.420   .     S
C57    H58     0.950   .     S
N59    H60     0.879   .     S
N59    C61     1.398   .     S
N59    C62     1.377   1_655 S
C61    C65     1.364   .     S
C61    C64     1.414   1_655 S
C62    H63     0.949   .     S
C62    N59     1.377   1_455 S
C64    C197    1.389   1_564 S
C64    C61     1.414   1_455 S
C65    H66     0.951   .     S
C65    C196    1.389   1_564 S
Cu67   O71     2.015   .     S
Cu67   N76     1.979   .     S
Cu67   N81     1.989   .     S
Cu67   O168    2.250   .     S
Cu67   N139    1.986   1_556 S
S68    O69     1.470   .     S
S68    O70     1.477   1_556 S
S68    O71     1.476   .     S
S68    O72     1.481   .     S
O69    Cu166   2.250   .     S
O70    S68     1.477   1_554 S
N73    C79     1.385   .     S
N73    C84     1.322   .     S
N73    Cu133   1.986   .     S
N74    H75     0.880   .     S
N74    C80     1.370   .     S
N74    C84     1.343   .     S
N76    C88     1.394   .     S
N76    C90     1.326   .     S
N77    H78     0.880   .     S
N77    C89     1.390   .     S
N77    C90     1.324   .     S
C79    C80     1.422   .     S
C79    C86     1.384   .     S
C80    C82     1.394   .     S
N81    C95     1.236   .     S
N81    C97     1.414   .     S
C82    H83     0.950   .     S
C82    C88     1.378   .     S
C84    H85     0.949   .     S
C86    H87     0.950   .     S
C86    C89     1.386   .     S
C88    C89     1.420   .     S
C90    H91     0.950   .     S
N92    H93     0.879   .     S
N92    C94     1.398   .     S
N92    C95     1.377   .     S
C94    C98     1.364   .     S
C94    C97     1.414   .     S
C95    H96     0.949   .     S
C97    C230    1.389   1_556 S
C98    H99     0.951   .     S
C98    C229    1.389   1_556 S
Cu100  O104    2.015   .     S
Cu100  N109    1.979   .     S
Cu100  N114    1.989   .     S
Cu100  O135    2.250   .     S
Cu100  N172    1.986   .     S
S101   O102    1.470   1_565 S
S101   O103    1.477   .     S
S101   O104    1.476   .     S
S101   O105    1.481   .     S
O102   S101    1.470   1_545 S
O102   Cu133   2.250   .     S
N106   C112    1.385   .     S
N106   C117    1.322   .     S
N106   Cu166   1.986   1_554 S
N107   H108    0.880   .     S
N107   C113    1.370   .     S
N107   C117    1.343   .     S
N109   C121    1.394   .     S
N109   C123    1.326   .     S
N110   H111    0.880   .     S
N110   C122    1.390   .     S
N110   C123    1.324   .     S
C112   C113    1.422   .     S
C112   C119    1.384   1_545 S
C113   C115    1.394   .     S
N114   C128    1.236   .     S
N114   C130    1.414   .     S
C115   H116    0.950   .     S
C115   C121    1.378   1_545 S
C117   H118    0.949   .     S
C119   C112    1.384   1_565 S
C119   H120    0.950   .     S
C119   C122    1.386   .     S
C121   C115    1.378   1_565 S
C121   C122    1.420   .     S
C123   H124    0.950   .     S
N125   H126    0.879   .     S
N125   C127    1.398   .     S
N125   C128    1.377   1_455 S
C127   C131    1.364   .     S
C127   C130    1.414   1_455 S
C128   H129    0.949   .     S
C128   N125    1.377   1_655 S
C130   C263    1.389   1_565 S
C130   C127    1.414   1_655 S
C131   H132    0.951   .     S
C131   C262    1.389   1_565 S
Cu133  O137    2.015   .     S
Cu133  N142    1.979   .     S
Cu133  N147    1.989   .     S
S134   O135    1.470   .     S
S134   O136    1.477   .     S
S134   O137    1.476   .     S
S134   O138    1.481   .     S
N139   C145    1.385   .     S
N139   C150    1.322   .     S
N139   Cu67    1.986   1_554 S
N140   H141    0.880   .     S
N140   C146    1.370   .     S
N140   C150    1.343   .     S
N142   C154    1.394   .     S
N142   C156    1.326   .     S
N143   H144    0.880   .     S
N143   C155    1.390   .     S
N143   C156    1.324   .     S
C145   C146    1.422   .     S
C145   C152    1.384   .     S
C146   C148    1.394   .     S
N147   C161    1.236   .     S
N147   C163    1.414   .     S
C148   H149    0.950   .     S
C148   C154    1.378   .     S
C150   H151    0.949   .     S
C152   H153    0.950   .     S
C152   C155    1.386   .     S
C154   C155    1.420   .     S
C156   H157    0.950   .     S
N158   H159    0.879   .     S
N158   C160    1.398   .     S
N158   C161    1.377   .     S
C160   C164    1.364   .     S
C160   C163    1.414   .     S
C161   H162    0.949   .     S
C164   H165    0.951   .     S
Cu166  O170    2.015   .     S
Cu166  N175    1.979   .     S
Cu166  N180    1.989   .     S
Cu166  N106    1.986   1_556 S
S167   O168    1.470   1_545 S
S167   O169    1.477   1_556 S
S167   O170    1.476   .     S
S167   O171    1.481   .     S
O168   S167    1.470   1_565 S
O169   S167    1.477   1_554 S
N172   C178    1.385   .     S
N172   C183    1.322   .     S
N173   H174    0.880   .     S
N173   C179    1.370   .     S
N173   C183    1.343   .     S
N175   C187    1.394   .     S
N175   C189    1.326   .     S
N176   H177    0.880   .     S
N176   C188    1.390   .     S
N176   C189    1.324   .     S
C178   C179    1.422   .     S
C178   C185    1.384   1_565 S
C179   C181    1.394   .     S
N180   C194    1.236   .     S
N180   C196    1.414   .     S
C181   H182    0.950   .     S
C181   C187    1.378   1_565 S
C183   H184    0.949   .     S
C185   C178    1.384   1_545 S
C185   H186    0.950   .     S
C185   C188    1.386   .     S
C187   C181    1.378   1_545 S
C187   C188    1.420   .     S
C189   H190    0.950   .     S
N191   H192    0.879   .     S
N191   C193    1.398   .     S
N191   C194    1.377   1_455 S
C193   C197    1.364   .     S
C193   C196    1.414   1_455 S
C194   H195    0.949   .     S
C194   N191    1.377   1_655 S
C196   C65     1.389   1_546 S
C196   C193    1.414   1_655 S
C197   H198    0.951   .     S
C197   C64     1.389   1_546 S
Cu199  O203    2.015   .     S
Cu199  N208    1.979   .     S
Cu199  N213    1.989   .     S
Cu199  N7      1.986   1_554 S
S200   O201    1.470   .     S
S200   O202    1.477   1_554 S
S200   O203    1.476   .     S
S200   O204    1.481   .     S
O202   S200    1.477   1_556 S
N205   C211    1.385   .     S
N205   C216    1.322   .     S
N206   H207    0.880   .     S
N206   C212    1.370   .     S
N206   C216    1.343   .     S
N208   C220    1.394   .     S
N208   C222    1.326   .     S
N209   H210    0.880   .     S
N209   C221    1.390   .     S
N209   C222    1.324   .     S
C211   C212    1.422   .     S
C211   C218    1.384   .     S
C212   C214    1.394   .     S
N213   C227    1.236   .     S
N213   C229    1.414   .     S
C214   H215    0.950   .     S
C214   C220    1.378   .     S
C216   H217    0.949   .     S
C218   H219    0.950   .     S
C218   C221    1.386   .     S
C220   C221    1.420   .     S
C222   H223    0.950   .     S
N224   H225    0.879   .     S
N224   C226    1.398   .     S
N224   C227    1.377   .     S
C226   C230    1.364   .     S
C226   C229    1.414   .     S
C227   H228    0.949   .     S
C229   C98     1.389   1_554 S
C230   H231    0.951   .     S
C230   C97     1.389   1_554 S
Cu232  O236    2.015   .     S
Cu232  N241    1.979   .     S
Cu232  N246    1.989   .     S
S233   O234    1.470   1_545 S
S233   O235    1.477   .     S
S233   O236    1.476   .     S
S233   O237    1.481   .     S
O234   S233    1.470   1_565 S
N238   C244    1.385   .     S
N238   C249    1.322   .     S
N238   Cu34    1.986   1_556 S
N239   H240    0.880   .     S
N239   C245    1.370   .     S
N239   C249    1.343   .     S
N241   C253    1.394   .     S
N241   C255    1.326   .     S
N242   H243    0.880   .     S
N242   C254    1.390   .     S
N242   C255    1.324   .     S
C244   C245    1.422   .     S
C244   C251    1.384   1_565 S
C245   C247    1.394   .     S
N246   C260    1.236   .     S
N246   C262    1.414   .     S
C247   H248    0.950   .     S
C247   C253    1.378   1_565 S
C249   H250    0.949   .     S
C251   C244    1.384   1_545 S
C251   H252    0.950   .     S
C251   C254    1.386   .     S
C253   C247    1.378   1_545 S
C253   C254    1.420   .     S
C255   H256    0.950   .     S
N257   H258    0.879   .     S
N257   C259    1.398   .     S
N257   C260    1.377   1_655 S
C259   C263    1.364   .     S
C259   C262    1.414   1_655 S
C260   H261    0.949   .     S
C260   N257    1.377   1_455 S
C262   C131    1.389   1_545 S
C262   C259    1.414   1_455 S
C263   H264    0.951   .     S
C263   C130    1.389   1_545 S
