data_MAQLID_FSR
_audit_creation_date              2024-06-11
_audit_creation_method            'Materials Studio'
_symmetry_space_group_name_H-M    'P1'
_symmetry_Int_Tables_number       1
_symmetry_cell_setting            triclinic
loop_
_symmetry_equiv_pos_as_xyz
  x,y,z
_cell_length_a                    26.8988
_cell_length_b                    26.8988
_cell_length_c                    26.8988
_cell_angle_alpha                 90.0000
_cell_angle_beta                  90.0000
_cell_angle_gamma                 90.0000
loop_
_atom_site_label
_atom_site_type_symbol
_atom_site_fract_x
_atom_site_fract_y
_atom_site_fract_z
_atom_site_U_iso_or_equiv
_atom_site_adp_type
_atom_site_occupancy
O1     O     0.13007   0.00531   0.06565   0.00000  Uiso   1.00
C2     C     0.11129   0.98473   0.11189   0.00000  Uiso   1.00
C3     C     0.15258   0.98611   0.15323   0.00000  Uiso   1.00
C4     C     0.22935   0.98648   0.23014   0.00000  Uiso   1.00
S5     S     0.17577   0.05444   0.28881   0.00000  Uiso   1.00
C6     C     0.19650   0.95764   0.14879   0.00000  Uiso   1.00
C7     C     0.14799   0.01489   0.19713   0.00000  Uiso   1.00
C8     C     0.23390   0.95782   0.18625   0.00000  Uiso   1.00
O9     O     0.06525   0.00624   0.12991   0.00000  Uiso   1.00
C10    C     0.18529   0.01527   0.23484   0.00000  Uiso   1.00
O11    O     0.16887   0.02382   0.33703   0.00000  Uiso   1.00
O12    O     0.12731   0.08975   0.28769   0.00000  Uiso   1.00
O13    O     0.22148   0.09084   0.30232   0.00000  Uiso   1.00
H14    H     0.20192   0.93483   0.11607   0.00000  Uiso   1.00
H15    H     0.11521   0.03761   0.20232   0.00000  Uiso   1.00
H16    H     0.18086   0.73320   0.06473   0.00000  Uiso   1.00
O17    O     0.13007   0.50531   0.56565   0.00000  Uiso   1.00
C18    C     0.11129   0.48473   0.61189   0.00000  Uiso   1.00
C19    C     0.15258   0.48611   0.65323   0.00000  Uiso   1.00
C20    C     0.22935   0.48648   0.73014   0.00000  Uiso   1.00
S21    S     0.17577   0.55444   0.78881   0.00000  Uiso   1.00
C22    C     0.19650   0.45764   0.64879   0.00000  Uiso   1.00
C23    C     0.14799   0.51489   0.69713   0.00000  Uiso   1.00
C24    C     0.23390   0.45782   0.68625   0.00000  Uiso   1.00
O25    O     0.06525   0.50624   0.62991   0.00000  Uiso   1.00
C26    C     0.18529   0.51527   0.73484   0.00000  Uiso   1.00
O27    O     0.16887   0.52382   0.83703   0.00000  Uiso   1.00
O28    O     0.12731   0.58975   0.78769   0.00000  Uiso   1.00
O29    O     0.22148   0.59084   0.80232   0.00000  Uiso   1.00
H30    H     0.20192   0.43483   0.61607   0.00000  Uiso   1.00
H31    H     0.11521   0.53761   0.70232   0.00000  Uiso   1.00
H32    H     0.18086   0.23320   0.56473   0.00000  Uiso   1.00
O33    O     0.63007   0.00531   0.56565   0.00000  Uiso   1.00
C34    C     0.61129   0.98473   0.61189   0.00000  Uiso   1.00
C35    C     0.65258   0.98611   0.65323   0.00000  Uiso   1.00
C36    C     0.72935   0.98648   0.73014   0.00000  Uiso   1.00
S37    S     0.67577   0.05444   0.78881   0.00000  Uiso   1.00
C38    C     0.69650   0.95764   0.64879   0.00000  Uiso   1.00
C39    C     0.64799   0.01489   0.69713   0.00000  Uiso   1.00
C40    C     0.73390   0.95782   0.68625   0.00000  Uiso   1.00
O41    O     0.56525   0.00624   0.62991   0.00000  Uiso   1.00
C42    C     0.68529   0.01527   0.73484   0.00000  Uiso   1.00
O43    O     0.66887   0.02382   0.83703   0.00000  Uiso   1.00
O44    O     0.62731   0.08975   0.78769   0.00000  Uiso   1.00
O45    O     0.72148   0.09084   0.80232   0.00000  Uiso   1.00
H46    H     0.70192   0.93483   0.61607   0.00000  Uiso   1.00
H47    H     0.61521   0.03761   0.70232   0.00000  Uiso   1.00
H48    H     0.68086   0.73320   0.56473   0.00000  Uiso   1.00
O49    O     0.63007   0.50531   0.06565   0.00000  Uiso   1.00
C50    C     0.61129   0.48473   0.11189   0.00000  Uiso   1.00
C51    C     0.65258   0.48611   0.15323   0.00000  Uiso   1.00
C52    C     0.72935   0.48648   0.23014   0.00000  Uiso   1.00
S53    S     0.67577   0.55444   0.28881   0.00000  Uiso   1.00
C54    C     0.69650   0.45764   0.14879   0.00000  Uiso   1.00
C55    C     0.64799   0.51489   0.19713   0.00000  Uiso   1.00
C56    C     0.73390   0.45782   0.18625   0.00000  Uiso   1.00
O57    O     0.56525   0.50624   0.12991   0.00000  Uiso   1.00
C58    C     0.68529   0.51527   0.23484   0.00000  Uiso   1.00
O59    O     0.66887   0.52382   0.33703   0.00000  Uiso   1.00
O60    O     0.62731   0.58975   0.28769   0.00000  Uiso   1.00
O61    O     0.72148   0.59084   0.30232   0.00000  Uiso   1.00
H62    H     0.70192   0.43483   0.11607   0.00000  Uiso   1.00
H63    H     0.61521   0.53761   0.20232   0.00000  Uiso   1.00
H64    H     0.68086   0.23320   0.06473   0.00000  Uiso   1.00
O65    O     0.86993   0.99469   0.06565   0.00000  Uiso   1.00
C66    C     0.88871   0.01527   0.11189   0.00000  Uiso   1.00
C67    C     0.84742   0.01389   0.15323   0.00000  Uiso   1.00
C68    C     0.77065   0.01352   0.23014   0.00000  Uiso   1.00
S69    S     0.82423   0.94556   0.28881   0.00000  Uiso   1.00
C70    C     0.80350   0.04236   0.14879   0.00000  Uiso   1.00
C71    C     0.85201   0.98511   0.19713   0.00000  Uiso   1.00
C72    C     0.76610   0.04218   0.18625   0.00000  Uiso   1.00
O73    O     0.93475   0.99376   0.12991   0.00000  Uiso   1.00
C74    C     0.81471   0.98473   0.23484   0.00000  Uiso   1.00
O75    O     0.83113   0.97618   0.33703   0.00000  Uiso   1.00
O76    O     0.87269   0.91025   0.28769   0.00000  Uiso   1.00
O77    O     0.77852   0.90916   0.30232   0.00000  Uiso   1.00
H78    H     0.79808   0.06517   0.11607   0.00000  Uiso   1.00
H79    H     0.88479   0.96239   0.20232   0.00000  Uiso   1.00
H80    H     0.81914   0.26680   0.06473   0.00000  Uiso   1.00
O81    O     0.86993   0.49469   0.56565   0.00000  Uiso   1.00
C82    C     0.88871   0.51527   0.61189   0.00000  Uiso   1.00
C83    C     0.84742   0.51389   0.65323   0.00000  Uiso   1.00
C84    C     0.77065   0.51352   0.73014   0.00000  Uiso   1.00
S85    S     0.82423   0.44556   0.78881   0.00000  Uiso   1.00
C86    C     0.80350   0.54236   0.64879   0.00000  Uiso   1.00
C87    C     0.85201   0.48511   0.69713   0.00000  Uiso   1.00
C88    C     0.76610   0.54218   0.68625   0.00000  Uiso   1.00
O89    O     0.93475   0.49376   0.62991   0.00000  Uiso   1.00
C90    C     0.81471   0.48473   0.73484   0.00000  Uiso   1.00
O91    O     0.83113   0.47618   0.83703   0.00000  Uiso   1.00
O92    O     0.87269   0.41025   0.78769   0.00000  Uiso   1.00
O93    O     0.77852   0.40916   0.80232   0.00000  Uiso   1.00
H94    H     0.79808   0.56517   0.61607   0.00000  Uiso   1.00
H95    H     0.88479   0.46239   0.70232   0.00000  Uiso   1.00
H96    H     0.81914   0.76680   0.56473   0.00000  Uiso   1.00
O97    O     0.36993   0.99469   0.56565   0.00000  Uiso   1.00
C98    C     0.38871   0.01527   0.61189   0.00000  Uiso   1.00
C99    C     0.34742   0.01389   0.65323   0.00000  Uiso   1.00
C100   C     0.27065   0.01352   0.73014   0.00000  Uiso   1.00
S101   S     0.32423   0.94556   0.78881   0.00000  Uiso   1.00
C102   C     0.30350   0.04236   0.64879   0.00000  Uiso   1.00
C103   C     0.35201   0.98511   0.69713   0.00000  Uiso   1.00
C104   C     0.26610   0.04218   0.68625   0.00000  Uiso   1.00
O105   O     0.43475   0.99376   0.62991   0.00000  Uiso   1.00
C106   C     0.31471   0.98473   0.73484   0.00000  Uiso   1.00
O107   O     0.33113   0.97618   0.83703   0.00000  Uiso   1.00
O108   O     0.37269   0.91025   0.78769   0.00000  Uiso   1.00
O109   O     0.27852   0.90916   0.80232   0.00000  Uiso   1.00
H110   H     0.29808   0.06517   0.61607   0.00000  Uiso   1.00
H111   H     0.38479   0.96239   0.70232   0.00000  Uiso   1.00
H112   H     0.31914   0.26680   0.56473   0.00000  Uiso   1.00
O113   O     0.36993   0.49469   0.06565   0.00000  Uiso   1.00
C114   C     0.38871   0.51527   0.11189   0.00000  Uiso   1.00
C115   C     0.34742   0.51389   0.15323   0.00000  Uiso   1.00
C116   C     0.27065   0.51352   0.23014   0.00000  Uiso   1.00
S117   S     0.32423   0.44556   0.28881   0.00000  Uiso   1.00
C118   C     0.30350   0.54236   0.14879   0.00000  Uiso   1.00
C119   C     0.35201   0.48511   0.19713   0.00000  Uiso   1.00
C120   C     0.26610   0.54218   0.18625   0.00000  Uiso   1.00
O121   O     0.43475   0.49376   0.12991   0.00000  Uiso   1.00
C122   C     0.31471   0.48473   0.23484   0.00000  Uiso   1.00
O123   O     0.33113   0.47618   0.33703   0.00000  Uiso   1.00
O124   O     0.37269   0.41025   0.28769   0.00000  Uiso   1.00
O125   O     0.27852   0.40916   0.30232   0.00000  Uiso   1.00
H126   H     0.29808   0.56517   0.11607   0.00000  Uiso   1.00
H127   H     0.38479   0.46239   0.20232   0.00000  Uiso   1.00
H128   H     0.31914   0.76680   0.06473   0.00000  Uiso   1.00
O129   O     0.86993   0.00531   0.93435   0.00000  Uiso   1.00
C130   C     0.88871   0.98473   0.88811   0.00000  Uiso   1.00
C131   C     0.84742   0.98611   0.84677   0.00000  Uiso   1.00
C132   C     0.77065   0.98648   0.76986   0.00000  Uiso   1.00
S133   S     0.82423   0.05444   0.71119   0.00000  Uiso   1.00
C134   C     0.80350   0.95764   0.85121   0.00000  Uiso   1.00
C135   C     0.85201   0.01489   0.80287   0.00000  Uiso   1.00
C136   C     0.76610   0.95782   0.81375   0.00000  Uiso   1.00
O137   O     0.93475   0.00624   0.87009   0.00000  Uiso   1.00
C138   C     0.81471   0.01527   0.76516   0.00000  Uiso   1.00
O139   O     0.83113   0.02382   0.66297   0.00000  Uiso   1.00
O140   O     0.87269   0.08975   0.71231   0.00000  Uiso   1.00
O141   O     0.77852   0.09084   0.69768   0.00000  Uiso   1.00
H142   H     0.79808   0.93483   0.88393   0.00000  Uiso   1.00
H143   H     0.88479   0.03761   0.79768   0.00000  Uiso   1.00
H144   H     0.81914   0.73320   0.93527   0.00000  Uiso   1.00
O145   O     0.86993   0.50531   0.43435   0.00000  Uiso   1.00
C146   C     0.88871   0.48473   0.38811   0.00000  Uiso   1.00
C147   C     0.84742   0.48611   0.34677   0.00000  Uiso   1.00
C148   C     0.77065   0.48648   0.26986   0.00000  Uiso   1.00
S149   S     0.82423   0.55444   0.21119   0.00000  Uiso   1.00
C150   C     0.80350   0.45764   0.35121   0.00000  Uiso   1.00
C151   C     0.85201   0.51489   0.30287   0.00000  Uiso   1.00
C152   C     0.76610   0.45782   0.31375   0.00000  Uiso   1.00
O153   O     0.93475   0.50624   0.37009   0.00000  Uiso   1.00
C154   C     0.81471   0.51527   0.26516   0.00000  Uiso   1.00
O155   O     0.83113   0.52382   0.16297   0.00000  Uiso   1.00
O156   O     0.87269   0.58975   0.21231   0.00000  Uiso   1.00
O157   O     0.77852   0.59084   0.19768   0.00000  Uiso   1.00
H158   H     0.79808   0.43483   0.38393   0.00000  Uiso   1.00
H159   H     0.88479   0.53761   0.29768   0.00000  Uiso   1.00
H160   H     0.81914   0.23320   0.43527   0.00000  Uiso   1.00
O161   O     0.36993   0.00531   0.43435   0.00000  Uiso   1.00
C162   C     0.38871   0.98473   0.38811   0.00000  Uiso   1.00
C163   C     0.34742   0.98611   0.34677   0.00000  Uiso   1.00
C164   C     0.27065   0.98648   0.26986   0.00000  Uiso   1.00
S165   S     0.32423   0.05444   0.21119   0.00000  Uiso   1.00
C166   C     0.30350   0.95764   0.35121   0.00000  Uiso   1.00
C167   C     0.35201   0.01489   0.30287   0.00000  Uiso   1.00
C168   C     0.26610   0.95782   0.31375   0.00000  Uiso   1.00
O169   O     0.43475   0.00624   0.37009   0.00000  Uiso   1.00
C170   C     0.31471   0.01527   0.26516   0.00000  Uiso   1.00
O171   O     0.33113   0.02382   0.16297   0.00000  Uiso   1.00
O172   O     0.37269   0.08975   0.21231   0.00000  Uiso   1.00
O173   O     0.27852   0.09084   0.19768   0.00000  Uiso   1.00
H174   H     0.29808   0.93483   0.38393   0.00000  Uiso   1.00
H175   H     0.38479   0.03761   0.29768   0.00000  Uiso   1.00
H176   H     0.31914   0.73320   0.43527   0.00000  Uiso   1.00
O177   O     0.36993   0.50531   0.93435   0.00000  Uiso   1.00
C178   C     0.38871   0.48473   0.88811   0.00000  Uiso   1.00
C179   C     0.34742   0.48611   0.84677   0.00000  Uiso   1.00
C180   C     0.27065   0.48648   0.76986   0.00000  Uiso   1.00
S181   S     0.32423   0.55444   0.71119   0.00000  Uiso   1.00
C182   C     0.30350   0.45764   0.85121   0.00000  Uiso   1.00
C183   C     0.35201   0.51489   0.80287   0.00000  Uiso   1.00
C184   C     0.26610   0.45782   0.81375   0.00000  Uiso   1.00
O185   O     0.43475   0.50624   0.87009   0.00000  Uiso   1.00
C186   C     0.31471   0.51527   0.76516   0.00000  Uiso   1.00
O187   O     0.33113   0.52382   0.66297   0.00000  Uiso   1.00
O188   O     0.37269   0.58975   0.71231   0.00000  Uiso   1.00
O189   O     0.27852   0.59084   0.69768   0.00000  Uiso   1.00
H190   H     0.29808   0.43483   0.88393   0.00000  Uiso   1.00
H191   H     0.38479   0.53761   0.79768   0.00000  Uiso   1.00
H192   H     0.31914   0.23320   0.93527   0.00000  Uiso   1.00
O193   O     0.13007   0.99469   0.93435   0.00000  Uiso   1.00
C194   C     0.11129   0.01527   0.88811   0.00000  Uiso   1.00
C195   C     0.15258   0.01389   0.84677   0.00000  Uiso   1.00
C196   C     0.22935   0.01352   0.76986   0.00000  Uiso   1.00
S197   S     0.17577   0.94556   0.71119   0.00000  Uiso   1.00
C198   C     0.19650   0.04236   0.85121   0.00000  Uiso   1.00
C199   C     0.14799   0.98511   0.80287   0.00000  Uiso   1.00
C200   C     0.23390   0.04218   0.81375   0.00000  Uiso   1.00
O201   O     0.06525   0.99376   0.87009   0.00000  Uiso   1.00
C202   C     0.18529   0.98473   0.76516   0.00000  Uiso   1.00
O203   O     0.16887   0.97618   0.66297   0.00000  Uiso   1.00
O204   O     0.12731   0.91025   0.71231   0.00000  Uiso   1.00
O205   O     0.22148   0.90916   0.69768   0.00000  Uiso   1.00
H206   H     0.20192   0.06517   0.88393   0.00000  Uiso   1.00
H207   H     0.11521   0.96239   0.79768   0.00000  Uiso   1.00
H208   H     0.18086   0.26680   0.93527   0.00000  Uiso   1.00
O209   O     0.13007   0.49469   0.43435   0.00000  Uiso   1.00
C210   C     0.11129   0.51527   0.38811   0.00000  Uiso   1.00
C211   C     0.15258   0.51389   0.34677   0.00000  Uiso   1.00
C212   C     0.22935   0.51352   0.26986   0.00000  Uiso   1.00
S213   S     0.17577   0.44556   0.21119   0.00000  Uiso   1.00
C214   C     0.19650   0.54236   0.35121   0.00000  Uiso   1.00
C215   C     0.14799   0.48511   0.30287   0.00000  Uiso   1.00
C216   C     0.23390   0.54218   0.31375   0.00000  Uiso   1.00
O217   O     0.06525   0.49376   0.37009   0.00000  Uiso   1.00
C218   C     0.18529   0.48473   0.26516   0.00000  Uiso   1.00
O219   O     0.16887   0.47618   0.16297   0.00000  Uiso   1.00
O220   O     0.12731   0.41025   0.21231   0.00000  Uiso   1.00
O221   O     0.22148   0.40916   0.19768   0.00000  Uiso   1.00
H222   H     0.20192   0.56517   0.38393   0.00000  Uiso   1.00
H223   H     0.11521   0.46239   0.29768   0.00000  Uiso   1.00
H224   H     0.18086   0.76680   0.43527   0.00000  Uiso   1.00
O225   O     0.63007   0.99469   0.43435   0.00000  Uiso   1.00
C226   C     0.61129   0.01527   0.38811   0.00000  Uiso   1.00
C227   C     0.65258   0.01389   0.34677   0.00000  Uiso   1.00
C228   C     0.72935   0.01352   0.26986   0.00000  Uiso   1.00
S229   S     0.67577   0.94556   0.21119   0.00000  Uiso   1.00
C230   C     0.69650   0.04236   0.35121   0.00000  Uiso   1.00
C231   C     0.64799   0.98511   0.30287   0.00000  Uiso   1.00
C232   C     0.73390   0.04218   0.31375   0.00000  Uiso   1.00
O233   O     0.56525   0.99376   0.37009   0.00000  Uiso   1.00
C234   C     0.68529   0.98473   0.26516   0.00000  Uiso   1.00
O235   O     0.66887   0.97618   0.16297   0.00000  Uiso   1.00
O236   O     0.62731   0.91025   0.21231   0.00000  Uiso   1.00
O237   O     0.72148   0.90916   0.19768   0.00000  Uiso   1.00
H238   H     0.70192   0.06517   0.38393   0.00000  Uiso   1.00
H239   H     0.61521   0.96239   0.29768   0.00000  Uiso   1.00
H240   H     0.68086   0.26680   0.43527   0.00000  Uiso   1.00
O241   O     0.63007   0.49469   0.93435   0.00000  Uiso   1.00
C242   C     0.61129   0.51527   0.88811   0.00000  Uiso   1.00
C243   C     0.65258   0.51389   0.84677   0.00000  Uiso   1.00
C244   C     0.72935   0.51352   0.76986   0.00000  Uiso   1.00
S245   S     0.67577   0.44556   0.71119   0.00000  Uiso   1.00
C246   C     0.69650   0.54236   0.85121   0.00000  Uiso   1.00
C247   C     0.64799   0.48511   0.80287   0.00000  Uiso   1.00
C248   C     0.73390   0.54218   0.81375   0.00000  Uiso   1.00
O249   O     0.56525   0.49376   0.87009   0.00000  Uiso   1.00
C250   C     0.68529   0.48473   0.76516   0.00000  Uiso   1.00
O251   O     0.66887   0.47618   0.66297   0.00000  Uiso   1.00
O252   O     0.62731   0.41025   0.71231   0.00000  Uiso   1.00
O253   O     0.72148   0.40916   0.69768   0.00000  Uiso   1.00
H254   H     0.70192   0.56517   0.88393   0.00000  Uiso   1.00
H255   H     0.61521   0.46239   0.79768   0.00000  Uiso   1.00
H256   H     0.68086   0.76680   0.93527   0.00000  Uiso   1.00
O257   O     0.06565   0.13007   0.00531   0.00000  Uiso   1.00
C258   C     0.11189   0.11129   0.98473   0.00000  Uiso   1.00
C259   C     0.15323   0.15258   0.98611   0.00000  Uiso   1.00
C260   C     0.23014   0.22935   0.98648   0.00000  Uiso   1.00
S261   S     0.28881   0.17577   0.05444   0.00000  Uiso   1.00
C262   C     0.14879   0.19650   0.95764   0.00000  Uiso   1.00
C263   C     0.19713   0.14799   0.01489   0.00000  Uiso   1.00
C264   C     0.18625   0.23390   0.95782   0.00000  Uiso   1.00
O265   O     0.12991   0.06525   0.00624   0.00000  Uiso   1.00
C266   C     0.23484   0.18529   0.01527   0.00000  Uiso   1.00
O267   O     0.33703   0.16887   0.02382   0.00000  Uiso   1.00
O268   O     0.28769   0.12731   0.08975   0.00000  Uiso   1.00
O269   O     0.30232   0.22148   0.09084   0.00000  Uiso   1.00
H270   H     0.11607   0.20192   0.93483   0.00000  Uiso   1.00
H271   H     0.20232   0.11521   0.03761   0.00000  Uiso   1.00
H272   H     0.06473   0.18086   0.73320   0.00000  Uiso   1.00
O273   O     0.06565   0.63007   0.50531   0.00000  Uiso   1.00
C274   C     0.11189   0.61129   0.48473   0.00000  Uiso   1.00
C275   C     0.15323   0.65258   0.48611   0.00000  Uiso   1.00
C276   C     0.23014   0.72935   0.48648   0.00000  Uiso   1.00
S277   S     0.28881   0.67577   0.55444   0.00000  Uiso   1.00
C278   C     0.14879   0.69650   0.45764   0.00000  Uiso   1.00
C279   C     0.19713   0.64799   0.51489   0.00000  Uiso   1.00
C280   C     0.18625   0.73390   0.45782   0.00000  Uiso   1.00
O281   O     0.12991   0.56525   0.50624   0.00000  Uiso   1.00
C282   C     0.23484   0.68529   0.51527   0.00000  Uiso   1.00
O283   O     0.33703   0.66887   0.52382   0.00000  Uiso   1.00
O284   O     0.28769   0.62731   0.58975   0.00000  Uiso   1.00
O285   O     0.30232   0.72148   0.59084   0.00000  Uiso   1.00
H286   H     0.11607   0.70192   0.43483   0.00000  Uiso   1.00
H287   H     0.20232   0.61521   0.53761   0.00000  Uiso   1.00
H288   H     0.06473   0.68086   0.23320   0.00000  Uiso   1.00
O289   O     0.56565   0.13007   0.50531   0.00000  Uiso   1.00
C290   C     0.61189   0.11129   0.48473   0.00000  Uiso   1.00
C291   C     0.65323   0.15258   0.48611   0.00000  Uiso   1.00
C292   C     0.73014   0.22935   0.48648   0.00000  Uiso   1.00
S293   S     0.78881   0.17577   0.55444   0.00000  Uiso   1.00
C294   C     0.64879   0.19650   0.45764   0.00000  Uiso   1.00
C295   C     0.69713   0.14799   0.51489   0.00000  Uiso   1.00
C296   C     0.68625   0.23390   0.45782   0.00000  Uiso   1.00
O297   O     0.62991   0.06525   0.50624   0.00000  Uiso   1.00
C298   C     0.73484   0.18529   0.51527   0.00000  Uiso   1.00
O299   O     0.83703   0.16887   0.52382   0.00000  Uiso   1.00
O300   O     0.78769   0.12731   0.58975   0.00000  Uiso   1.00
O301   O     0.80232   0.22148   0.59084   0.00000  Uiso   1.00
H302   H     0.61607   0.20192   0.43483   0.00000  Uiso   1.00
H303   H     0.70232   0.11521   0.53761   0.00000  Uiso   1.00
H304   H     0.56473   0.18086   0.23320   0.00000  Uiso   1.00
O305   O     0.56565   0.63007   0.00531   0.00000  Uiso   1.00
C306   C     0.61189   0.61129   0.98473   0.00000  Uiso   1.00
C307   C     0.65323   0.65258   0.98611   0.00000  Uiso   1.00
C308   C     0.73014   0.72935   0.98648   0.00000  Uiso   1.00
S309   S     0.78881   0.67577   0.05444   0.00000  Uiso   1.00
C310   C     0.64879   0.69650   0.95764   0.00000  Uiso   1.00
C311   C     0.69713   0.64799   0.01489   0.00000  Uiso   1.00
C312   C     0.68625   0.73390   0.95782   0.00000  Uiso   1.00
O313   O     0.62991   0.56525   0.00624   0.00000  Uiso   1.00
C314   C     0.73484   0.68529   0.01527   0.00000  Uiso   1.00
O315   O     0.83703   0.66887   0.02382   0.00000  Uiso   1.00
O316   O     0.78769   0.62731   0.08975   0.00000  Uiso   1.00
O317   O     0.80232   0.72148   0.09084   0.00000  Uiso   1.00
H318   H     0.61607   0.70192   0.93483   0.00000  Uiso   1.00
H319   H     0.70232   0.61521   0.03761   0.00000  Uiso   1.00
H320   H     0.56473   0.68086   0.73320   0.00000  Uiso   1.00
O321   O     0.06565   0.86993   0.99469   0.00000  Uiso   1.00
C322   C     0.11189   0.88871   0.01527   0.00000  Uiso   1.00
C323   C     0.15323   0.84742   0.01389   0.00000  Uiso   1.00
C324   C     0.23014   0.77065   0.01352   0.00000  Uiso   1.00
S325   S     0.28881   0.82423   0.94556   0.00000  Uiso   1.00
C326   C     0.14879   0.80350   0.04236   0.00000  Uiso   1.00
C327   C     0.19713   0.85201   0.98511   0.00000  Uiso   1.00
C328   C     0.18625   0.76610   0.04218   0.00000  Uiso   1.00
O329   O     0.12991   0.93475   0.99376   0.00000  Uiso   1.00
C330   C     0.23484   0.81471   0.98473   0.00000  Uiso   1.00
O331   O     0.33703   0.83113   0.97618   0.00000  Uiso   1.00
O332   O     0.28769   0.87269   0.91025   0.00000  Uiso   1.00
O333   O     0.30232   0.77852   0.90916   0.00000  Uiso   1.00
H334   H     0.11607   0.79808   0.06517   0.00000  Uiso   1.00
H335   H     0.20232   0.88479   0.96239   0.00000  Uiso   1.00
H336   H     0.06473   0.81914   0.26680   0.00000  Uiso   1.00
O337   O     0.06565   0.36993   0.49469   0.00000  Uiso   1.00
C338   C     0.11189   0.38871   0.51527   0.00000  Uiso   1.00
C339   C     0.15323   0.34742   0.51389   0.00000  Uiso   1.00
C340   C     0.23014   0.27065   0.51352   0.00000  Uiso   1.00
S341   S     0.28881   0.32423   0.44556   0.00000  Uiso   1.00
C342   C     0.14879   0.30350   0.54236   0.00000  Uiso   1.00
C343   C     0.19713   0.35201   0.48511   0.00000  Uiso   1.00
C344   C     0.18625   0.26610   0.54218   0.00000  Uiso   1.00
O345   O     0.12991   0.43475   0.49376   0.00000  Uiso   1.00
C346   C     0.23484   0.31471   0.48473   0.00000  Uiso   1.00
O347   O     0.33703   0.33113   0.47618   0.00000  Uiso   1.00
O348   O     0.28769   0.37269   0.41025   0.00000  Uiso   1.00
O349   O     0.30232   0.27852   0.40916   0.00000  Uiso   1.00
H350   H     0.11607   0.29808   0.56517   0.00000  Uiso   1.00
H351   H     0.20232   0.38479   0.46239   0.00000  Uiso   1.00
H352   H     0.06473   0.31914   0.76680   0.00000  Uiso   1.00
O353   O     0.56565   0.86993   0.49469   0.00000  Uiso   1.00
C354   C     0.61189   0.88871   0.51527   0.00000  Uiso   1.00
C355   C     0.65323   0.84742   0.51389   0.00000  Uiso   1.00
C356   C     0.73014   0.77065   0.51352   0.00000  Uiso   1.00
S357   S     0.78881   0.82423   0.44556   0.00000  Uiso   1.00
C358   C     0.64879   0.80350   0.54236   0.00000  Uiso   1.00
C359   C     0.69713   0.85201   0.48511   0.00000  Uiso   1.00
C360   C     0.68625   0.76610   0.54218   0.00000  Uiso   1.00
O361   O     0.62991   0.93475   0.49376   0.00000  Uiso   1.00
C362   C     0.73484   0.81471   0.48473   0.00000  Uiso   1.00
O363   O     0.83703   0.83113   0.47618   0.00000  Uiso   1.00
O364   O     0.78769   0.87269   0.41025   0.00000  Uiso   1.00
O365   O     0.80232   0.77852   0.40916   0.00000  Uiso   1.00
H366   H     0.61607   0.79808   0.56517   0.00000  Uiso   1.00
H367   H     0.70232   0.88479   0.46239   0.00000  Uiso   1.00
H368   H     0.56473   0.81914   0.76680   0.00000  Uiso   1.00
O369   O     0.56565   0.36993   0.99469   0.00000  Uiso   1.00
C370   C     0.61189   0.38871   0.01527   0.00000  Uiso   1.00
C371   C     0.65323   0.34742   0.01389   0.00000  Uiso   1.00
C372   C     0.73014   0.27065   0.01352   0.00000  Uiso   1.00
S373   S     0.78881   0.32423   0.94556   0.00000  Uiso   1.00
C374   C     0.64879   0.30350   0.04236   0.00000  Uiso   1.00
C375   C     0.69713   0.35201   0.98511   0.00000  Uiso   1.00
C376   C     0.68625   0.26610   0.04218   0.00000  Uiso   1.00
O377   O     0.62991   0.43475   0.99376   0.00000  Uiso   1.00
C378   C     0.73484   0.31471   0.98473   0.00000  Uiso   1.00
O379   O     0.83703   0.33113   0.97618   0.00000  Uiso   1.00
O380   O     0.78769   0.37269   0.91025   0.00000  Uiso   1.00
O381   O     0.80232   0.27852   0.90916   0.00000  Uiso   1.00
H382   H     0.61607   0.29808   0.06517   0.00000  Uiso   1.00
H383   H     0.70232   0.38479   0.96239   0.00000  Uiso   1.00
H384   H     0.56473   0.31914   0.26680   0.00000  Uiso   1.00
O385   O     0.93435   0.86993   0.00531   0.00000  Uiso   1.00
C386   C     0.88811   0.88871   0.98473   0.00000  Uiso   1.00
C387   C     0.84677   0.84742   0.98611   0.00000  Uiso   1.00
C388   C     0.76986   0.77065   0.98648   0.00000  Uiso   1.00
S389   S     0.71119   0.82423   0.05444   0.00000  Uiso   1.00
C390   C     0.85121   0.80350   0.95764   0.00000  Uiso   1.00
C391   C     0.80287   0.85201   0.01489   0.00000  Uiso   1.00
C392   C     0.81375   0.76610   0.95782   0.00000  Uiso   1.00
O393   O     0.87009   0.93475   0.00624   0.00000  Uiso   1.00
C394   C     0.76516   0.81471   0.01527   0.00000  Uiso   1.00
O395   O     0.66297   0.83113   0.02382   0.00000  Uiso   1.00
O396   O     0.71231   0.87269   0.08975   0.00000  Uiso   1.00
O397   O     0.69768   0.77852   0.09084   0.00000  Uiso   1.00
H398   H     0.88393   0.79808   0.93483   0.00000  Uiso   1.00
H399   H     0.79768   0.88479   0.03761   0.00000  Uiso   1.00
H400   H     0.93527   0.81914   0.73320   0.00000  Uiso   1.00
O401   O     0.93435   0.36993   0.50531   0.00000  Uiso   1.00
C402   C     0.88811   0.38871   0.48473   0.00000  Uiso   1.00
C403   C     0.84677   0.34742   0.48611   0.00000  Uiso   1.00
C404   C     0.76986   0.27065   0.48648   0.00000  Uiso   1.00
S405   S     0.71119   0.32423   0.55444   0.00000  Uiso   1.00
C406   C     0.85121   0.30350   0.45764   0.00000  Uiso   1.00
C407   C     0.80287   0.35201   0.51489   0.00000  Uiso   1.00
C408   C     0.81375   0.26610   0.45782   0.00000  Uiso   1.00
O409   O     0.87009   0.43475   0.50624   0.00000  Uiso   1.00
C410   C     0.76516   0.31471   0.51527   0.00000  Uiso   1.00
O411   O     0.66297   0.33113   0.52382   0.00000  Uiso   1.00
O412   O     0.71231   0.37269   0.58975   0.00000  Uiso   1.00
O413   O     0.69768   0.27852   0.59084   0.00000  Uiso   1.00
H414   H     0.88393   0.29808   0.43483   0.00000  Uiso   1.00
H415   H     0.79768   0.38479   0.53761   0.00000  Uiso   1.00
H416   H     0.93527   0.31914   0.23320   0.00000  Uiso   1.00
O417   O     0.43435   0.86993   0.50531   0.00000  Uiso   1.00
C418   C     0.38811   0.88871   0.48473   0.00000  Uiso   1.00
C419   C     0.34677   0.84742   0.48611   0.00000  Uiso   1.00
C420   C     0.26986   0.77065   0.48648   0.00000  Uiso   1.00
S421   S     0.21119   0.82423   0.55444   0.00000  Uiso   1.00
C422   C     0.35121   0.80350   0.45764   0.00000  Uiso   1.00
C423   C     0.30287   0.85201   0.51489   0.00000  Uiso   1.00
C424   C     0.31375   0.76610   0.45782   0.00000  Uiso   1.00
O425   O     0.37009   0.93475   0.50624   0.00000  Uiso   1.00
C426   C     0.26516   0.81471   0.51527   0.00000  Uiso   1.00
O427   O     0.16297   0.83113   0.52382   0.00000  Uiso   1.00
O428   O     0.21231   0.87269   0.58975   0.00000  Uiso   1.00
O429   O     0.19768   0.77852   0.59084   0.00000  Uiso   1.00
H430   H     0.38393   0.79808   0.43483   0.00000  Uiso   1.00
H431   H     0.29768   0.88479   0.53761   0.00000  Uiso   1.00
H432   H     0.43527   0.81914   0.23320   0.00000  Uiso   1.00
O433   O     0.43435   0.36993   0.00531   0.00000  Uiso   1.00
C434   C     0.38811   0.38871   0.98473   0.00000  Uiso   1.00
C435   C     0.34677   0.34742   0.98611   0.00000  Uiso   1.00
C436   C     0.26986   0.27065   0.98648   0.00000  Uiso   1.00
S437   S     0.21119   0.32423   0.05444   0.00000  Uiso   1.00
C438   C     0.35121   0.30350   0.95764   0.00000  Uiso   1.00
C439   C     0.30287   0.35201   0.01489   0.00000  Uiso   1.00
C440   C     0.31375   0.26610   0.95782   0.00000  Uiso   1.00
O441   O     0.37009   0.43475   0.00624   0.00000  Uiso   1.00
C442   C     0.26516   0.31471   0.01527   0.00000  Uiso   1.00
O443   O     0.16297   0.33113   0.02382   0.00000  Uiso   1.00
O444   O     0.21231   0.37269   0.08975   0.00000  Uiso   1.00
O445   O     0.19768   0.27852   0.09084   0.00000  Uiso   1.00
H446   H     0.38393   0.29808   0.93483   0.00000  Uiso   1.00
H447   H     0.29768   0.38479   0.03761   0.00000  Uiso   1.00
H448   H     0.43527   0.31914   0.73320   0.00000  Uiso   1.00
O449   O     0.93435   0.13007   0.99469   0.00000  Uiso   1.00
C450   C     0.88811   0.11129   0.01527   0.00000  Uiso   1.00
C451   C     0.84677   0.15258   0.01389   0.00000  Uiso   1.00
C452   C     0.76986   0.22935   0.01352   0.00000  Uiso   1.00
S453   S     0.71119   0.17577   0.94556   0.00000  Uiso   1.00
C454   C     0.85121   0.19650   0.04236   0.00000  Uiso   1.00
C455   C     0.80287   0.14799   0.98511   0.00000  Uiso   1.00
C456   C     0.81375   0.23390   0.04218   0.00000  Uiso   1.00
O457   O     0.87009   0.06525   0.99376   0.00000  Uiso   1.00
C458   C     0.76516   0.18529   0.98473   0.00000  Uiso   1.00
O459   O     0.66297   0.16887   0.97618   0.00000  Uiso   1.00
O460   O     0.71231   0.12731   0.91025   0.00000  Uiso   1.00
O461   O     0.69768   0.22148   0.90916   0.00000  Uiso   1.00
H462   H     0.88393   0.20192   0.06517   0.00000  Uiso   1.00
H463   H     0.79768   0.11521   0.96239   0.00000  Uiso   1.00
H464   H     0.93527   0.18086   0.26680   0.00000  Uiso   1.00
O465   O     0.93435   0.63007   0.49469   0.00000  Uiso   1.00
C466   C     0.88811   0.61129   0.51527   0.00000  Uiso   1.00
C467   C     0.84677   0.65258   0.51389   0.00000  Uiso   1.00
C468   C     0.76986   0.72935   0.51352   0.00000  Uiso   1.00
S469   S     0.71119   0.67577   0.44556   0.00000  Uiso   1.00
C470   C     0.85121   0.69650   0.54236   0.00000  Uiso   1.00
C471   C     0.80287   0.64799   0.48511   0.00000  Uiso   1.00
C472   C     0.81375   0.73390   0.54218   0.00000  Uiso   1.00
O473   O     0.87009   0.56525   0.49376   0.00000  Uiso   1.00
C474   C     0.76516   0.68529   0.48473   0.00000  Uiso   1.00
O475   O     0.66297   0.66887   0.47618   0.00000  Uiso   1.00
O476   O     0.71231   0.62731   0.41025   0.00000  Uiso   1.00
O477   O     0.69768   0.72148   0.40916   0.00000  Uiso   1.00
H478   H     0.88393   0.70192   0.56517   0.00000  Uiso   1.00
H479   H     0.79768   0.61521   0.46239   0.00000  Uiso   1.00
H480   H     0.93527   0.68086   0.76680   0.00000  Uiso   1.00
O481   O     0.43435   0.13007   0.49469   0.00000  Uiso   1.00
C482   C     0.38811   0.11129   0.51527   0.00000  Uiso   1.00
C483   C     0.34677   0.15258   0.51389   0.00000  Uiso   1.00
C484   C     0.26986   0.22935   0.51352   0.00000  Uiso   1.00
S485   S     0.21119   0.17577   0.44556   0.00000  Uiso   1.00
C486   C     0.35121   0.19650   0.54236   0.00000  Uiso   1.00
C487   C     0.30287   0.14799   0.48511   0.00000  Uiso   1.00
C488   C     0.31375   0.23390   0.54218   0.00000  Uiso   1.00
O489   O     0.37009   0.06525   0.49376   0.00000  Uiso   1.00
C490   C     0.26516   0.18529   0.48473   0.00000  Uiso   1.00
O491   O     0.16297   0.16887   0.47618   0.00000  Uiso   1.00
O492   O     0.21231   0.12731   0.41025   0.00000  Uiso   1.00
O493   O     0.19768   0.22148   0.40916   0.00000  Uiso   1.00
H494   H     0.38393   0.20192   0.56517   0.00000  Uiso   1.00
H495   H     0.29768   0.11521   0.46239   0.00000  Uiso   1.00
H496   H     0.43527   0.18086   0.76680   0.00000  Uiso   1.00
O497   O     0.43435   0.63007   0.99469   0.00000  Uiso   1.00
C498   C     0.38811   0.61129   0.01527   0.00000  Uiso   1.00
C499   C     0.34677   0.65258   0.01389   0.00000  Uiso   1.00
C500   C     0.26986   0.72935   0.01352   0.00000  Uiso   1.00
S501   S     0.21119   0.67577   0.94556   0.00000  Uiso   1.00
C502   C     0.35121   0.69650   0.04236   0.00000  Uiso   1.00
C503   C     0.30287   0.64799   0.98511   0.00000  Uiso   1.00
C504   C     0.31375   0.73390   0.04218   0.00000  Uiso   1.00
O505   O     0.37009   0.56525   0.99376   0.00000  Uiso   1.00
C506   C     0.26516   0.68529   0.98473   0.00000  Uiso   1.00
O507   O     0.16297   0.66887   0.97618   0.00000  Uiso   1.00
O508   O     0.21231   0.62731   0.91025   0.00000  Uiso   1.00
O509   O     0.19768   0.72148   0.90916   0.00000  Uiso   1.00
H510   H     0.38393   0.70192   0.06517   0.00000  Uiso   1.00
H511   H     0.29768   0.61521   0.96239   0.00000  Uiso   1.00
H512   H     0.43527   0.68086   0.26680   0.00000  Uiso   1.00
O513   O     0.00531   0.06565   0.13007   0.00000  Uiso   1.00
C514   C     0.98473   0.11189   0.11129   0.00000  Uiso   1.00
C515   C     0.98611   0.15323   0.15258   0.00000  Uiso   1.00
C516   C     0.98648   0.23014   0.22935   0.00000  Uiso   1.00
S517   S     0.05444   0.28881   0.17577   0.00000  Uiso   1.00
C518   C     0.95764   0.14879   0.19650   0.00000  Uiso   1.00
C519   C     0.01489   0.19713   0.14799   0.00000  Uiso   1.00
C520   C     0.95782   0.18625   0.23390   0.00000  Uiso   1.00
O521   O     0.00624   0.12991   0.06525   0.00000  Uiso   1.00
C522   C     0.01527   0.23484   0.18529   0.00000  Uiso   1.00
O523   O     0.02382   0.33703   0.16887   0.00000  Uiso   1.00
O524   O     0.08975   0.28769   0.12731   0.00000  Uiso   1.00
O525   O     0.09084   0.30232   0.22148   0.00000  Uiso   1.00
H526   H     0.93483   0.11607   0.20192   0.00000  Uiso   1.00
H527   H     0.03761   0.20232   0.11521   0.00000  Uiso   1.00
H528   H     0.73320   0.06473   0.18086   0.00000  Uiso   1.00
O529   O     0.00531   0.56565   0.63007   0.00000  Uiso   1.00
C530   C     0.98473   0.61189   0.61129   0.00000  Uiso   1.00
C531   C     0.98611   0.65323   0.65258   0.00000  Uiso   1.00
C532   C     0.98648   0.73014   0.72935   0.00000  Uiso   1.00
S533   S     0.05444   0.78881   0.67577   0.00000  Uiso   1.00
C534   C     0.95764   0.64879   0.69650   0.00000  Uiso   1.00
C535   C     0.01489   0.69713   0.64799   0.00000  Uiso   1.00
C536   C     0.95782   0.68625   0.73390   0.00000  Uiso   1.00
O537   O     0.00624   0.62991   0.56525   0.00000  Uiso   1.00
C538   C     0.01527   0.73484   0.68529   0.00000  Uiso   1.00
O539   O     0.02382   0.83703   0.66887   0.00000  Uiso   1.00
O540   O     0.08975   0.78769   0.62731   0.00000  Uiso   1.00
O541   O     0.09084   0.80232   0.72148   0.00000  Uiso   1.00
H542   H     0.93483   0.61607   0.70192   0.00000  Uiso   1.00
H543   H     0.03761   0.70232   0.61521   0.00000  Uiso   1.00
H544   H     0.73320   0.56473   0.68086   0.00000  Uiso   1.00
O545   O     0.50531   0.06565   0.63007   0.00000  Uiso   1.00
C546   C     0.48473   0.11189   0.61129   0.00000  Uiso   1.00
C547   C     0.48611   0.15323   0.65258   0.00000  Uiso   1.00
C548   C     0.48648   0.23014   0.72935   0.00000  Uiso   1.00
S549   S     0.55444   0.28881   0.67577   0.00000  Uiso   1.00
C550   C     0.45764   0.14879   0.69650   0.00000  Uiso   1.00
C551   C     0.51489   0.19713   0.64799   0.00000  Uiso   1.00
C552   C     0.45782   0.18625   0.73390   0.00000  Uiso   1.00
O553   O     0.50624   0.12991   0.56525   0.00000  Uiso   1.00
C554   C     0.51527   0.23484   0.68529   0.00000  Uiso   1.00
O555   O     0.52382   0.33703   0.66887   0.00000  Uiso   1.00
O556   O     0.58975   0.28769   0.62731   0.00000  Uiso   1.00
O557   O     0.59084   0.30232   0.72148   0.00000  Uiso   1.00
H558   H     0.43483   0.11607   0.70192   0.00000  Uiso   1.00
H559   H     0.53761   0.20232   0.61521   0.00000  Uiso   1.00
H560   H     0.23320   0.06473   0.68086   0.00000  Uiso   1.00
O561   O     0.50531   0.56565   0.13007   0.00000  Uiso   1.00
C562   C     0.48473   0.61189   0.11129   0.00000  Uiso   1.00
C563   C     0.48611   0.65323   0.15258   0.00000  Uiso   1.00
C564   C     0.48648   0.73014   0.22935   0.00000  Uiso   1.00
S565   S     0.55444   0.78881   0.17577   0.00000  Uiso   1.00
C566   C     0.45764   0.64879   0.19650   0.00000  Uiso   1.00
C567   C     0.51489   0.69713   0.14799   0.00000  Uiso   1.00
C568   C     0.45782   0.68625   0.23390   0.00000  Uiso   1.00
O569   O     0.50624   0.62991   0.06525   0.00000  Uiso   1.00
C570   C     0.51527   0.73484   0.18529   0.00000  Uiso   1.00
O571   O     0.52382   0.83703   0.16887   0.00000  Uiso   1.00
O572   O     0.58975   0.78769   0.12731   0.00000  Uiso   1.00
O573   O     0.59084   0.80232   0.22148   0.00000  Uiso   1.00
H574   H     0.43483   0.61607   0.20192   0.00000  Uiso   1.00
H575   H     0.53761   0.70232   0.11521   0.00000  Uiso   1.00
H576   H     0.23320   0.56473   0.18086   0.00000  Uiso   1.00
O577   O     0.99469   0.06565   0.86993   0.00000  Uiso   1.00
C578   C     0.01527   0.11189   0.88871   0.00000  Uiso   1.00
C579   C     0.01389   0.15323   0.84742   0.00000  Uiso   1.00
C580   C     0.01352   0.23014   0.77065   0.00000  Uiso   1.00
S581   S     0.94556   0.28881   0.82423   0.00000  Uiso   1.00
C582   C     0.04236   0.14879   0.80350   0.00000  Uiso   1.00
C583   C     0.98511   0.19713   0.85201   0.00000  Uiso   1.00
C584   C     0.04218   0.18625   0.76610   0.00000  Uiso   1.00
O585   O     0.99376   0.12991   0.93475   0.00000  Uiso   1.00
C586   C     0.98473   0.23484   0.81471   0.00000  Uiso   1.00
O587   O     0.97618   0.33703   0.83113   0.00000  Uiso   1.00
O588   O     0.91025   0.28769   0.87269   0.00000  Uiso   1.00
O589   O     0.90916   0.30232   0.77852   0.00000  Uiso   1.00
H590   H     0.06517   0.11607   0.79808   0.00000  Uiso   1.00
H591   H     0.96239   0.20232   0.88479   0.00000  Uiso   1.00
H592   H     0.26680   0.06473   0.81914   0.00000  Uiso   1.00
O593   O     0.99469   0.56565   0.36993   0.00000  Uiso   1.00
C594   C     0.01527   0.61189   0.38871   0.00000  Uiso   1.00
C595   C     0.01389   0.65323   0.34742   0.00000  Uiso   1.00
C596   C     0.01352   0.73014   0.27065   0.00000  Uiso   1.00
S597   S     0.94556   0.78881   0.32423   0.00000  Uiso   1.00
C598   C     0.04236   0.64879   0.30350   0.00000  Uiso   1.00
C599   C     0.98511   0.69713   0.35201   0.00000  Uiso   1.00
C600   C     0.04218   0.68625   0.26610   0.00000  Uiso   1.00
O601   O     0.99376   0.62991   0.43475   0.00000  Uiso   1.00
C602   C     0.98473   0.73484   0.31471   0.00000  Uiso   1.00
O603   O     0.97618   0.83703   0.33113   0.00000  Uiso   1.00
O604   O     0.91025   0.78769   0.37269   0.00000  Uiso   1.00
O605   O     0.90916   0.80232   0.27852   0.00000  Uiso   1.00
H606   H     0.06517   0.61607   0.29808   0.00000  Uiso   1.00
H607   H     0.96239   0.70232   0.38479   0.00000  Uiso   1.00
H608   H     0.26680   0.56473   0.31914   0.00000  Uiso   1.00
O609   O     0.49469   0.06565   0.36993   0.00000  Uiso   1.00
C610   C     0.51527   0.11189   0.38871   0.00000  Uiso   1.00
C611   C     0.51389   0.15323   0.34742   0.00000  Uiso   1.00
C612   C     0.51352   0.23014   0.27065   0.00000  Uiso   1.00
S613   S     0.44556   0.28881   0.32423   0.00000  Uiso   1.00
C614   C     0.54236   0.14879   0.30350   0.00000  Uiso   1.00
C615   C     0.48511   0.19713   0.35201   0.00000  Uiso   1.00
C616   C     0.54218   0.18625   0.26610   0.00000  Uiso   1.00
O617   O     0.49376   0.12991   0.43475   0.00000  Uiso   1.00
C618   C     0.48473   0.23484   0.31471   0.00000  Uiso   1.00
O619   O     0.47618   0.33703   0.33113   0.00000  Uiso   1.00
O620   O     0.41025   0.28769   0.37269   0.00000  Uiso   1.00
O621   O     0.40916   0.30232   0.27852   0.00000  Uiso   1.00
H622   H     0.56517   0.11607   0.29808   0.00000  Uiso   1.00
H623   H     0.46239   0.20232   0.38479   0.00000  Uiso   1.00
H624   H     0.76680   0.06473   0.31914   0.00000  Uiso   1.00
O625   O     0.49469   0.56565   0.86993   0.00000  Uiso   1.00
C626   C     0.51527   0.61189   0.88871   0.00000  Uiso   1.00
C627   C     0.51389   0.65323   0.84742   0.00000  Uiso   1.00
C628   C     0.51352   0.73014   0.77065   0.00000  Uiso   1.00
S629   S     0.44556   0.78881   0.82423   0.00000  Uiso   1.00
C630   C     0.54236   0.64879   0.80350   0.00000  Uiso   1.00
C631   C     0.48511   0.69713   0.85201   0.00000  Uiso   1.00
C632   C     0.54218   0.68625   0.76610   0.00000  Uiso   1.00
O633   O     0.49376   0.62991   0.93475   0.00000  Uiso   1.00
C634   C     0.48473   0.73484   0.81471   0.00000  Uiso   1.00
O635   O     0.47618   0.83703   0.83113   0.00000  Uiso   1.00
O636   O     0.41025   0.78769   0.87269   0.00000  Uiso   1.00
O637   O     0.40916   0.80232   0.77852   0.00000  Uiso   1.00
H638   H     0.56517   0.61607   0.79808   0.00000  Uiso   1.00
H639   H     0.46239   0.70232   0.88479   0.00000  Uiso   1.00
H640   H     0.76680   0.56473   0.81914   0.00000  Uiso   1.00
O641   O     0.00531   0.93435   0.86993   0.00000  Uiso   1.00
C642   C     0.98473   0.88811   0.88871   0.00000  Uiso   1.00
C643   C     0.98611   0.84677   0.84742   0.00000  Uiso   1.00
C644   C     0.98648   0.76986   0.77065   0.00000  Uiso   1.00
S645   S     0.05444   0.71119   0.82423   0.00000  Uiso   1.00
C646   C     0.95764   0.85121   0.80350   0.00000  Uiso   1.00
C647   C     0.01489   0.80287   0.85201   0.00000  Uiso   1.00
C648   C     0.95782   0.81375   0.76610   0.00000  Uiso   1.00
O649   O     0.00624   0.87009   0.93475   0.00000  Uiso   1.00
C650   C     0.01527   0.76516   0.81471   0.00000  Uiso   1.00
O651   O     0.02382   0.66297   0.83113   0.00000  Uiso   1.00
O652   O     0.08975   0.71231   0.87269   0.00000  Uiso   1.00
O653   O     0.09084   0.69768   0.77852   0.00000  Uiso   1.00
H654   H     0.93483   0.88393   0.79808   0.00000  Uiso   1.00
H655   H     0.03761   0.79768   0.88479   0.00000  Uiso   1.00
H656   H     0.73320   0.93527   0.81914   0.00000  Uiso   1.00
O657   O     0.00531   0.43435   0.36993   0.00000  Uiso   1.00
C658   C     0.98473   0.38811   0.38871   0.00000  Uiso   1.00
C659   C     0.98611   0.34677   0.34742   0.00000  Uiso   1.00
C660   C     0.98648   0.26986   0.27065   0.00000  Uiso   1.00
S661   S     0.05444   0.21119   0.32423   0.00000  Uiso   1.00
C662   C     0.95764   0.35121   0.30350   0.00000  Uiso   1.00
C663   C     0.01489   0.30287   0.35201   0.00000  Uiso   1.00
C664   C     0.95782   0.31375   0.26610   0.00000  Uiso   1.00
O665   O     0.00624   0.37009   0.43475   0.00000  Uiso   1.00
C666   C     0.01527   0.26516   0.31471   0.00000  Uiso   1.00
O667   O     0.02382   0.16297   0.33113   0.00000  Uiso   1.00
O668   O     0.08975   0.21231   0.37269   0.00000  Uiso   1.00
O669   O     0.09084   0.19768   0.27852   0.00000  Uiso   1.00
H670   H     0.93483   0.38393   0.29808   0.00000  Uiso   1.00
H671   H     0.03761   0.29768   0.38479   0.00000  Uiso   1.00
H672   H     0.73320   0.43527   0.31914   0.00000  Uiso   1.00
O673   O     0.50531   0.93435   0.36993   0.00000  Uiso   1.00
C674   C     0.48473   0.88811   0.38871   0.00000  Uiso   1.00
C675   C     0.48611   0.84677   0.34742   0.00000  Uiso   1.00
C676   C     0.48648   0.76986   0.27065   0.00000  Uiso   1.00
S677   S     0.55444   0.71119   0.32423   0.00000  Uiso   1.00
C678   C     0.45764   0.85121   0.30350   0.00000  Uiso   1.00
C679   C     0.51489   0.80287   0.35201   0.00000  Uiso   1.00
C680   C     0.45782   0.81375   0.26610   0.00000  Uiso   1.00
O681   O     0.50624   0.87009   0.43475   0.00000  Uiso   1.00
C682   C     0.51527   0.76516   0.31471   0.00000  Uiso   1.00
O683   O     0.52382   0.66297   0.33113   0.00000  Uiso   1.00
O684   O     0.58975   0.71231   0.37269   0.00000  Uiso   1.00
O685   O     0.59084   0.69768   0.27852   0.00000  Uiso   1.00
H686   H     0.43483   0.88393   0.29808   0.00000  Uiso   1.00
H687   H     0.53761   0.79768   0.38479   0.00000  Uiso   1.00
H688   H     0.23320   0.93527   0.31914   0.00000  Uiso   1.00
O689   O     0.50531   0.43435   0.86993   0.00000  Uiso   1.00
C690   C     0.48473   0.38811   0.88871   0.00000  Uiso   1.00
C691   C     0.48611   0.34677   0.84742   0.00000  Uiso   1.00
C692   C     0.48648   0.26986   0.77065   0.00000  Uiso   1.00
S693   S     0.55444   0.21119   0.82423   0.00000  Uiso   1.00
C694   C     0.45764   0.35121   0.80350   0.00000  Uiso   1.00
C695   C     0.51489   0.30287   0.85201   0.00000  Uiso   1.00
C696   C     0.45782   0.31375   0.76610   0.00000  Uiso   1.00
O697   O     0.50624   0.37009   0.93475   0.00000  Uiso   1.00
C698   C     0.51527   0.26516   0.81471   0.00000  Uiso   1.00
O699   O     0.52382   0.16297   0.83113   0.00000  Uiso   1.00
O700   O     0.58975   0.21231   0.87269   0.00000  Uiso   1.00
O701   O     0.59084   0.19768   0.77852   0.00000  Uiso   1.00
H702   H     0.43483   0.38393   0.79808   0.00000  Uiso   1.00
H703   H     0.53761   0.29768   0.88479   0.00000  Uiso   1.00
H704   H     0.23320   0.43527   0.81914   0.00000  Uiso   1.00
O705   O     0.99469   0.93435   0.13007   0.00000  Uiso   1.00
C706   C     0.01527   0.88811   0.11129   0.00000  Uiso   1.00
C707   C     0.01389   0.84677   0.15258   0.00000  Uiso   1.00
C708   C     0.01352   0.76986   0.22935   0.00000  Uiso   1.00
S709   S     0.94556   0.71119   0.17577   0.00000  Uiso   1.00
C710   C     0.04236   0.85121   0.19650   0.00000  Uiso   1.00
C711   C     0.98511   0.80287   0.14799   0.00000  Uiso   1.00
C712   C     0.04218   0.81375   0.23390   0.00000  Uiso   1.00
O713   O     0.99376   0.87009   0.06525   0.00000  Uiso   1.00
C714   C     0.98473   0.76516   0.18529   0.00000  Uiso   1.00
O715   O     0.97618   0.66297   0.16887   0.00000  Uiso   1.00
O716   O     0.91025   0.71231   0.12731   0.00000  Uiso   1.00
O717   O     0.90916   0.69768   0.22148   0.00000  Uiso   1.00
H718   H     0.06517   0.88393   0.20192   0.00000  Uiso   1.00
H719   H     0.96239   0.79768   0.11521   0.00000  Uiso   1.00
H720   H     0.26680   0.93527   0.18086   0.00000  Uiso   1.00
O721   O     0.99469   0.43435   0.63007   0.00000  Uiso   1.00
C722   C     0.01527   0.38811   0.61129   0.00000  Uiso   1.00
C723   C     0.01389   0.34677   0.65258   0.00000  Uiso   1.00
C724   C     0.01352   0.26986   0.72935   0.00000  Uiso   1.00
S725   S     0.94556   0.21119   0.67577   0.00000  Uiso   1.00
C726   C     0.04236   0.35121   0.69650   0.00000  Uiso   1.00
C727   C     0.98511   0.30287   0.64799   0.00000  Uiso   1.00
C728   C     0.04218   0.31375   0.73390   0.00000  Uiso   1.00
O729   O     0.99376   0.37009   0.56525   0.00000  Uiso   1.00
C730   C     0.98473   0.26516   0.68529   0.00000  Uiso   1.00
O731   O     0.97618   0.16297   0.66887   0.00000  Uiso   1.00
O732   O     0.91025   0.21231   0.62731   0.00000  Uiso   1.00
O733   O     0.90916   0.19768   0.72148   0.00000  Uiso   1.00
H734   H     0.06517   0.38393   0.70192   0.00000  Uiso   1.00
H735   H     0.96239   0.29768   0.61521   0.00000  Uiso   1.00
H736   H     0.26680   0.43527   0.68086   0.00000  Uiso   1.00
O737   O     0.49469   0.93435   0.63007   0.00000  Uiso   1.00
C738   C     0.51527   0.88811   0.61129   0.00000  Uiso   1.00
C739   C     0.51389   0.84677   0.65258   0.00000  Uiso   1.00
C740   C     0.51352   0.76986   0.72935   0.00000  Uiso   1.00
S741   S     0.44556   0.71119   0.67577   0.00000  Uiso   1.00
C742   C     0.54236   0.85121   0.69650   0.00000  Uiso   1.00
C743   C     0.48511   0.80287   0.64799   0.00000  Uiso   1.00
C744   C     0.54218   0.81375   0.73390   0.00000  Uiso   1.00
O745   O     0.49376   0.87009   0.56525   0.00000  Uiso   1.00
C746   C     0.48473   0.76516   0.68529   0.00000  Uiso   1.00
O747   O     0.47618   0.66297   0.66887   0.00000  Uiso   1.00
O748   O     0.41025   0.71231   0.62731   0.00000  Uiso   1.00
O749   O     0.40916   0.69768   0.72148   0.00000  Uiso   1.00
H750   H     0.56517   0.88393   0.70192   0.00000  Uiso   1.00
H751   H     0.46239   0.79768   0.61521   0.00000  Uiso   1.00
H752   H     0.76680   0.93527   0.68086   0.00000  Uiso   1.00
O753   O     0.49469   0.43435   0.13007   0.00000  Uiso   1.00
C754   C     0.51527   0.38811   0.11129   0.00000  Uiso   1.00
C755   C     0.51389   0.34677   0.15258   0.00000  Uiso   1.00
C756   C     0.51352   0.26986   0.22935   0.00000  Uiso   1.00
S757   S     0.44556   0.21119   0.17577   0.00000  Uiso   1.00
C758   C     0.54236   0.35121   0.19650   0.00000  Uiso   1.00
C759   C     0.48511   0.30287   0.14799   0.00000  Uiso   1.00
C760   C     0.54218   0.31375   0.23390   0.00000  Uiso   1.00
O761   O     0.49376   0.37009   0.06525   0.00000  Uiso   1.00
C762   C     0.48473   0.26516   0.18529   0.00000  Uiso   1.00
O763   O     0.47618   0.16297   0.16887   0.00000  Uiso   1.00
O764   O     0.41025   0.21231   0.12731   0.00000  Uiso   1.00
O765   O     0.40916   0.19768   0.22148   0.00000  Uiso   1.00
H766   H     0.56517   0.38393   0.20192   0.00000  Uiso   1.00
H767   H     0.46239   0.29768   0.11521   0.00000  Uiso   1.00
H768   H     0.76680   0.43527   0.18086   0.00000  Uiso   1.00
Zr769  Zr    0.41803  -0.00000   0.50000   0.00000  Uiso   1.00
Zr770  Zr    0.41803   0.50000  -0.00000   0.00000  Uiso   1.00
Zr771  Zr    0.91803  -0.00000  -0.00000   0.00000  Uiso   1.00
Zr772  Zr    0.91803   0.50000   0.50000   0.00000  Uiso   1.00
Zr773  Zr    0.58197  -0.00000   0.50000   0.00000  Uiso   1.00
Zr774  Zr    0.58197   0.50000  -0.00000   0.00000  Uiso   1.00
Zr775  Zr    0.08197   0.00000  -0.00000   0.00000  Uiso   1.00
Zr776  Zr    0.08197   0.50000   0.50000   0.00000  Uiso   1.00
Zr777  Zr    0.50000   0.41803  -0.00000   0.00000  Uiso   1.00
Zr778  Zr    0.50000   0.91803   0.50000   0.00000  Uiso   1.00
Zr779  Zr   -0.00000   0.41803   0.50000   0.00000  Uiso   1.00
Zr780  Zr   -0.00000   0.91803  -0.00000   0.00000  Uiso   1.00
Zr781  Zr    0.50000   0.58197  -0.00000   0.00000  Uiso   1.00
Zr782  Zr    0.50000   0.08197   0.50000   0.00000  Uiso   1.00
Zr783  Zr    0.00000   0.58197   0.50000   0.00000  Uiso   1.00
Zr784  Zr    0.00000   0.08197  -0.00000   0.00000  Uiso   1.00
Zr785  Zr    0.00000   0.50000   0.41803   0.00000  Uiso   1.00
Zr786  Zr    0.00000  -0.00000   0.91803   0.00000  Uiso   1.00
Zr787  Zr    0.50000   0.50000   0.91803   0.00000  Uiso   1.00
Zr788  Zr    0.50000   0.00000   0.41803   0.00000  Uiso   1.00
Zr789  Zr    0.00000   0.50000   0.58197   0.00000  Uiso   1.00
Zr790  Zr    0.00000   0.00000   0.08197   0.00000  Uiso   1.00
Zr791  Zr    0.50000   0.50000   0.08197   0.00000  Uiso   1.00
Zr792  Zr    0.50000   0.00000   0.58197   0.00000  Uiso   1.00
O793   O     0.45064   0.04936   0.54936   0.00000  Uiso   1.00
O794   O     0.54936   0.95064   0.54936   0.00000  Uiso   1.00
O795   O     0.54936   0.04936   0.45064   0.00000  Uiso   1.00
O796   O     0.45064   0.95064   0.45064   0.00000  Uiso   1.00
O797   O     0.54936   0.45064   0.04936   0.00000  Uiso   1.00
O798   O     0.54936   0.54936   0.95064   0.00000  Uiso   1.00
O799   O     0.45064   0.54936   0.04936   0.00000  Uiso   1.00
O800   O     0.45064   0.45064   0.95064   0.00000  Uiso   1.00
O801   O     0.04936   0.54936   0.45064   0.00000  Uiso   1.00
O802   O     0.04936   0.04936   0.95064   0.00000  Uiso   1.00
O803   O     0.95064   0.54936   0.54936   0.00000  Uiso   1.00
O804   O     0.95064   0.04936   0.04936   0.00000  Uiso   1.00
O805   O     0.04936   0.45064   0.54936   0.00000  Uiso   1.00
O806   O     0.04936   0.95064   0.04936   0.00000  Uiso   1.00
O807   O     0.95064   0.45064   0.45064   0.00000  Uiso   1.00
O808   O     0.95064   0.95064   0.95064   0.00000  Uiso   1.00
O809   O     0.45024   0.04976   0.45024   0.00000  Uiso   1.00
O810   O     0.54976   0.95024   0.45024   0.00000  Uiso   1.00
O811   O     0.04976   0.45024   0.45024   0.00000  Uiso   1.00
O812   O     0.54976   0.04976   0.54976   0.00000  Uiso   1.00
O813   O     0.04976   0.04976   0.04976   0.00000  Uiso   1.00
O814   O     0.45024   0.95024   0.54976   0.00000  Uiso   1.00
O815   O     0.45024   0.45024   0.04976   0.00000  Uiso   1.00
O816   O     0.45024   0.54976   0.95024   0.00000  Uiso   1.00
O817   O     0.54976   0.54976   0.04976   0.00000  Uiso   1.00
O818   O     0.54976   0.45024   0.95024   0.00000  Uiso   1.00
O819   O     0.04976   0.95024   0.95024   0.00000  Uiso   1.00
O820   O     0.95024   0.45024   0.54976   0.00000  Uiso   1.00
O821   O     0.95024   0.95024   0.04976   0.00000  Uiso   1.00
O822   O     0.04976   0.54976   0.54976   0.00000  Uiso   1.00
O823   O     0.95024   0.54976   0.45024   0.00000  Uiso   1.00
O824   O     0.95024   0.04976   0.95024   0.00000  Uiso   1.00
loop_
_geom_bond_atom_site_label_1
_geom_bond_atom_site_label_2
_geom_bond_distance
_geom_bond_site_symmetry_2
_ccdc_geom_bond_type
O1     C2      1.452   1_545 S
O1     Zr775   2.194   .     S
C2     O1      1.452   1_565 S
C2     C3      1.572   .     S
C2     O9      1.450   1_565 S
C3     C6      1.413   .     A
C3     C7      1.417   1_565 A
C4     C8      1.415   .     A
C4     C10     1.421   1_565 A
C4     C164    1.542   .     S
S5     C10     1.812   .     S
S5     O12     1.613   .     A
S5     O13     1.613   .     A
S5     O11     1.548   .     D
C6     C8      1.424   .     A
C6     H14     1.083   .     S
C7     C3      1.417   1_545 A
C7     H15     1.082   .     S
C7     C10     1.427   .     A
C8     H720    1.083   .     S
O9     C2      1.450   1_545 S
O9     Zr790   2.184   .     S
C10    C4      1.421   1_545 A
H16    C328    1.083   .     S
O17    C18     1.452   .     S
O17    Zr776   2.194   .     S
C18    C19     1.572   .     S
C18    O25     1.450   .     S
C19    C22     1.413   .     A
C19    C23     1.417   .     A
C20    C24     1.415   .     A
C20    C26     1.421   .     A
C20    C180    1.542   .     S
S21    C26     1.812   .     S
S21    O28     1.613   .     A
S21    O29     1.613   .     A
S21    O27     1.548   .     D
C22    C24     1.424   .     A
C22    H30     1.083   .     S
C23    H31     1.082   .     S
C23    C26     1.427   .     A
C24    H736    1.083   .     S
O25    Zr789   2.184   .     S
H32    C344    1.083   .     S
O33    C34     1.452   1_545 S
O33    Zr773   2.194   .     S
C34    O33     1.452   1_565 S
C34    C35     1.572   .     S
C34    O41     1.450   1_565 S
C35    C38     1.413   .     A
C35    C39     1.417   1_565 A
C36    C40     1.415   .     A
C36    C42     1.421   1_565 A
C36    C132    1.542   .     S
S37    C42     1.812   .     S
S37    O44     1.613   .     A
S37    O45     1.613   .     A
S37    O43     1.548   .     D
C38    C40     1.424   .     A
C38    H46     1.083   .     S
C39    C35     1.417   1_545 A
C39    H47     1.082   .     S
C39    C42     1.427   .     A
C40    H752    1.083   .     S
O41    C34     1.450   1_545 S
O41    Zr792   2.184   .     S
C42    C36     1.421   1_545 A
H48    C360    1.083   .     S
O49    C50     1.452   .     S
O49    Zr774   2.194   .     S
C50    C51     1.572   .     S
C50    O57     1.450   .     S
C51    C54     1.413   .     A
C51    C55     1.417   .     A
C52    C56     1.415   .     A
C52    C58     1.421   .     A
C52    C148    1.542   .     S
S53    C58     1.812   .     S
S53    O60     1.613   .     A
S53    O61     1.613   .     A
S53    O59     1.548   .     D
C54    C56     1.424   .     A
C54    H62     1.083   .     S
C55    H63     1.082   .     S
C55    C58     1.427   .     A
C56    H768    1.083   .     S
O57    Zr791   2.184   .     S
H64    C376    1.083   .     S
O65    C66     1.452   1_565 S
O65    Zr771   2.194   1_565 S
C66    O65     1.452   1_545 S
C66    C67     1.572   .     S
C66    O73     1.450   1_545 S
C67    C70     1.413   .     A
C67    C71     1.417   1_545 A
C68    C72     1.415   .     A
C68    C74     1.421   1_545 A
C68    C228    1.542   .     S
S69    C74     1.812   .     S
S69    O76     1.613   .     A
S69    O77     1.613   .     A
S69    O75     1.548   .     D
C70    C72     1.424   .     A
C70    H78     1.083   .     S
C71    C67     1.417   1_565 A
C71    H79     1.082   .     S
C71    C74     1.427   .     A
C72    H528    1.083   .     S
O73    C66     1.450   1_565 S
O73    Zr790   2.184   1_665 S
C74    C68     1.421   1_565 A
H80    C456    1.083   .     S
O81    C82     1.452   .     S
O81    Zr772   2.194   .     S
C82    C83     1.572   .     S
C82    O89     1.450   .     S
C83    C86     1.413   .     A
C83    C87     1.417   .     A
C84    C88     1.415   .     A
C84    C90     1.421   .     A
C84    C244    1.542   .     S
S85    C90     1.812   .     S
S85    O92     1.613   .     A
S85    O93     1.613   .     A
S85    O91     1.548   .     D
C86    C88     1.424   .     A
C86    H94     1.083   .     S
C87    H95     1.082   .     S
C87    C90     1.427   .     A
C88    H544    1.083   .     S
O89    Zr789   2.184   1_655 S
H96    C472    1.083   .     S
O97    C98     1.452   1_565 S
O97    Zr769   2.194   1_565 S
C98    O97     1.452   1_545 S
C98    C99     1.572   .     S
C98    O105    1.450   1_545 S
C99    C102    1.413   .     A
C99    C103    1.417   1_545 A
C100   C104    1.415   .     A
C100   C106    1.421   1_545 A
C100   C196    1.542   .     S
S101   C106    1.812   .     S
S101   O108    1.613   .     A
S101   O109    1.613   .     A
S101   O107    1.548   .     D
C102   C104    1.424   .     A
C102   H110    1.083   .     S
C103   C99     1.417   1_565 A
C103   H111    1.082   .     S
C103   C106    1.427   .     A
C104   H560    1.083   .     S
O105   C98     1.450   1_565 S
O105   Zr792   2.184   1_565 S
C106   C100    1.421   1_565 A
H112   C488    1.083   .     S
O113   C114    1.452   .     S
O113   Zr770   2.194   .     S
C114   C115    1.572   .     S
C114   O121    1.450   .     S
C115   C118    1.413   .     A
C115   C119    1.417   .     A
C116   C120    1.415   .     A
C116   C122    1.421   .     A
C116   C212    1.542   .     S
S117   C122    1.812   .     S
S117   O124    1.613   .     A
S117   O125    1.613   .     A
S117   O123    1.548   .     D
C118   C120    1.424   .     A
C118   H126    1.083   .     S
C119   H127    1.082   .     S
C119   C122    1.427   .     A
C120   H576    1.083   .     S
O121   Zr791   2.184   .     S
H128   C504    1.083   .     S
O129   C130    1.452   1_545 S
O129   Zr771   2.194   1_556 S
C130   O129    1.452   1_565 S
C130   C131    1.572   .     S
C130   O137    1.450   1_565 S
C131   C134    1.413   .     A
C131   C135    1.417   1_565 A
C132   C136    1.415   .     A
C132   C138    1.421   1_565 A
S133   C138    1.812   .     S
S133   O140    1.613   .     A
S133   O141    1.613   .     A
S133   O139    1.548   .     D
C134   C136    1.424   .     A
C134   H142    1.083   .     S
C135   C131    1.417   1_545 A
C135   H143    1.082   .     S
C135   C138    1.427   .     A
C136   H656    1.083   .     S
O137   C130    1.450   1_545 S
O137   Zr786   2.184   1_655 S
C138   C132    1.421   1_545 A
H144   C392    1.083   .     S
O145   C146    1.452   .     S
O145   Zr772   2.194   .     S
C146   C147    1.572   .     S
C146   O153    1.450   .     S
C147   C150    1.413   .     A
C147   C151    1.417   .     A
C148   C152    1.415   .     A
C148   C154    1.421   .     A
S149   C154    1.812   .     S
S149   O156    1.613   .     A
S149   O157    1.613   .     A
S149   O155    1.548   .     D
C150   C152    1.424   .     A
C150   H158    1.083   .     S
C151   H159    1.082   .     S
C151   C154    1.427   .     A
C152   H672    1.083   .     S
O153   Zr785   2.184   1_655 S
H160   C408    1.083   .     S
O161   C162    1.452   1_545 S
O161   Zr769   2.194   .     S
C162   O161    1.452   1_565 S
C162   C163    1.572   .     S
C162   O169    1.450   1_565 S
C163   C166    1.413   .     A
C163   C167    1.417   1_565 A
C164   C168    1.415   .     A
C164   C170    1.421   1_565 A
S165   C170    1.812   .     S
S165   O172    1.613   .     A
S165   O173    1.613   .     A
S165   O171    1.548   .     D
C166   C168    1.424   .     A
C166   H174    1.083   .     S
C167   C163    1.417   1_545 A
C167   H175    1.082   .     S
C167   C170    1.427   .     A
C168   H688    1.083   .     S
O169   C162    1.450   1_545 S
O169   Zr788   2.184   .     S
C170   C164    1.421   1_545 A
H176   C424    1.083   .     S
O177   C178    1.452   .     S
O177   Zr770   2.194   1_556 S
C178   C179    1.572   .     S
C178   O185    1.450   .     S
C179   C182    1.413   .     A
C179   C183    1.417   .     A
C180   C184    1.415   .     A
C180   C186    1.421   .     A
S181   C186    1.812   .     S
S181   O188    1.613   .     A
S181   O189    1.613   .     A
S181   O187    1.548   .     D
C182   C184    1.424   .     A
C182   H190    1.083   .     S
C183   H191    1.082   .     S
C183   C186    1.427   .     A
C184   H704    1.083   .     S
O185   Zr787   2.184   .     S
H192   C440    1.083   .     S
O193   C194    1.452   1_565 S
O193   Zr775   2.194   1_566 S
C194   O193    1.452   1_545 S
C194   C195    1.572   .     S
C194   O201    1.450   1_545 S
C195   C198    1.413   .     A
C195   C199    1.417   1_545 A
C196   C200    1.415   .     A
C196   C202    1.421   1_545 A
S197   C202    1.812   .     S
S197   O204    1.613   .     A
S197   O205    1.613   .     A
S197   O203    1.548   .     D
C198   C200    1.424   .     A
C198   H206    1.083   .     S
C199   C195    1.417   1_565 A
C199   H207    1.082   .     S
C199   C202    1.427   .     A
C200   H592    1.083   .     S
O201   C194    1.450   1_565 S
O201   Zr786   2.184   1_565 S
C202   C196    1.421   1_565 A
H208   C264    1.083   .     S
O209   C210    1.452   .     S
O209   Zr776   2.194   .     S
C210   C211    1.572   .     S
C210   O217    1.450   .     S
C211   C214    1.413   .     A
C211   C215    1.417   .     A
C212   C216    1.415   .     A
C212   C218    1.421   .     A
S213   C218    1.812   .     S
S213   O220    1.613   .     A
S213   O221    1.613   .     A
S213   O219    1.548   .     D
C214   C216    1.424   .     A
C214   H222    1.083   .     S
C215   H223    1.082   .     S
C215   C218    1.427   .     A
C216   H608    1.083   .     S
O217   Zr785   2.184   .     S
H224   C280    1.083   .     S
O225   C226    1.452   1_565 S
O225   Zr773   2.194   1_565 S
C226   O225    1.452   1_545 S
C226   C227    1.572   .     S
C226   O233    1.450   1_545 S
C227   C230    1.413   .     A
C227   C231    1.417   1_545 A
C228   C232    1.415   .     A
C228   C234    1.421   1_545 A
S229   C234    1.812   .     S
S229   O236    1.613   .     A
S229   O237    1.613   .     A
S229   O235    1.548   .     D
C230   C232    1.424   .     A
C230   H238    1.083   .     S
C231   C227    1.417   1_565 A
C231   H239    1.082   .     S
C231   C234    1.427   .     A
C232   H624    1.083   .     S
O233   C226    1.450   1_565 S
O233   Zr788   2.184   1_565 S
C234   C228    1.421   1_565 A
H240   C296    1.083   .     S
O241   C242    1.452   .     S
O241   Zr774   2.194   1_556 S
C242   C243    1.572   .     S
C242   O249    1.450   .     S
C243   C246    1.413   .     A
C243   C247    1.417   .     A
C244   C248    1.415   .     A
C244   C250    1.421   .     A
S245   C250    1.812   .     S
S245   O252    1.613   .     A
S245   O253    1.613   .     A
S245   O251    1.548   .     D
C246   C248    1.424   .     A
C246   H254    1.083   .     S
C247   H255    1.082   .     S
C247   C250    1.427   .     A
C248   H640    1.083   .     S
O249   Zr787   2.184   .     S
H256   C312    1.083   .     S
O257   C258    1.452   1_554 S
O257   Zr784   2.194   .     S
C258   O257    1.452   1_556 S
C258   C259    1.572   .     S
C258   O265    1.450   1_556 S
C259   C262    1.413   .     A
C259   C263    1.417   1_556 A
C260   C264    1.415   .     A
C260   C266    1.421   1_556 A
C260   C436    1.542   .     S
S261   C266    1.812   .     S
S261   O268    1.613   .     A
S261   O269    1.613   .     A
S261   O267    1.548   .     D
C262   C264    1.424   .     A
C262   H270    1.083   .     S
C263   C259    1.417   1_554 A
C263   H271    1.082   .     S
C263   C266    1.427   .     A
O265   C258    1.450   1_554 S
O265   Zr775   2.184   .     S
C266   C260    1.421   1_554 A
H272   C584    1.083   .     S
O273   C274    1.452   .     S
O273   Zr783   2.194   .     S
C274   C275    1.572   .     S
C274   O281    1.450   .     S
C275   C278    1.413   .     A
C275   C279    1.417   .     A
C276   C280    1.415   .     A
C276   C282    1.421   .     A
C276   C420    1.542   .     S
S277   C282    1.812   .     S
S277   O284    1.613   .     A
S277   O285    1.613   .     A
S277   O283    1.548   .     D
C278   C280    1.424   .     A
C278   H286    1.083   .     S
C279   H287    1.082   .     S
C279   C282    1.427   .     A
O281   Zr776   2.184   .     S
H288   C600    1.083   .     S
O289   C290    1.452   .     S
O289   Zr782   2.194   .     S
C290   C291    1.572   .     S
C290   O297    1.450   .     S
C291   C294    1.413   .     A
C291   C295    1.417   .     A
C292   C296    1.415   .     A
C292   C298    1.421   .     A
C292   C404    1.542   .     S
S293   C298    1.812   .     S
S293   O300    1.613   .     A
S293   O301    1.613   .     A
S293   O299    1.548   .     D
C294   C296    1.424   .     A
C294   H302    1.083   .     S
C295   H303    1.082   .     S
C295   C298    1.427   .     A
O297   Zr773   2.184   .     S
H304   C616    1.083   .     S
O305   C306    1.452   1_554 S
O305   Zr781   2.194   .     S
C306   O305    1.452   1_556 S
C306   C307    1.572   .     S
C306   O313    1.450   1_556 S
C307   C310    1.413   .     A
C307   C311    1.417   1_556 A
C308   C312    1.415   .     A
C308   C314    1.421   1_556 A
C308   C388    1.542   .     S
S309   C314    1.812   .     S
S309   O316    1.613   .     A
S309   O317    1.613   .     A
S309   O315    1.548   .     D
C310   C312    1.424   .     A
C310   H318    1.083   .     S
C311   C307    1.417   1_554 A
C311   H319    1.082   .     S
C311   C314    1.427   .     A
O313   C306    1.450   1_554 S
O313   Zr774   2.184   .     S
C314   C308    1.421   1_554 A
H320   C632    1.083   .     S
O321   C322    1.452   1_556 S
O321   Zr780   2.194   1_556 S
C322   O321    1.452   1_554 S
C322   C323    1.572   .     S
C322   O329    1.450   1_554 S
C323   C326    1.413   .     A
C323   C327    1.417   1_554 A
C324   C328    1.415   .     A
C324   C330    1.421   1_554 A
C324   C500    1.542   .     S
S325   C330    1.812   .     S
S325   O332    1.613   .     A
S325   O333    1.613   .     A
S325   O331    1.548   .     D
C326   C328    1.424   .     A
C326   H334    1.083   .     S
C327   C323    1.417   1_556 A
C327   H335    1.082   .     S
C327   C330    1.427   .     A
O329   C322    1.450   1_556 S
O329   Zr775   2.184   1_566 S
C330   C324    1.421   1_556 A
H336   C712    1.083   .     S
O337   C338    1.452   .     S
O337   Zr779   2.194   .     S
C338   C339    1.572   .     S
C338   O345    1.450   .     S
C339   C342    1.413   .     A
C339   C343    1.417   .     A
C340   C344    1.415   .     A
C340   C346    1.421   .     A
C340   C484    1.542   .     S
S341   C346    1.812   .     S
S341   O348    1.613   .     A
S341   O349    1.613   .     A
S341   O347    1.548   .     D
C342   C344    1.424   .     A
C342   H350    1.083   .     S
C343   H351    1.082   .     S
C343   C346    1.427   .     A
O345   Zr776   2.184   .     S
H352   C728    1.083   .     S
O353   C354    1.452   .     S
O353   Zr778   2.194   .     S
C354   C355    1.572   .     S
C354   O361    1.450   .     S
C355   C358    1.413   .     A
C355   C359    1.417   .     A
C356   C360    1.415   .     A
C356   C362    1.421   .     A
C356   C468    1.542   .     S
S357   C362    1.812   .     S
S357   O364    1.613   .     A
S357   O365    1.613   .     A
S357   O363    1.548   .     D
C358   C360    1.424   .     A
C358   H366    1.083   .     S
C359   H367    1.082   .     S
C359   C362    1.427   .     A
O361   Zr773   2.184   1_565 S
H368   C744    1.083   .     S
O369   C370    1.452   1_556 S
O369   Zr777   2.194   1_556 S
C370   O369    1.452   1_554 S
C370   C371    1.572   .     S
C370   O377    1.450   1_554 S
C371   C374    1.413   .     A
C371   C375    1.417   1_554 A
C372   C376    1.415   .     A
C372   C378    1.421   1_554 A
C372   C452    1.542   .     S
S373   C378    1.812   .     S
S373   O380    1.613   .     A
S373   O381    1.613   .     A
S373   O379    1.548   .     D
C374   C376    1.424   .     A
C374   H382    1.083   .     S
C375   C371    1.417   1_556 A
C375   H383    1.082   .     S
C375   C378    1.427   .     A
O377   C370    1.450   1_556 S
O377   Zr774   2.184   1_556 S
C378   C372    1.421   1_556 A
H384   C760    1.083   .     S
O385   C386    1.452   1_554 S
O385   Zr780   2.194   1_655 S
C386   O385    1.452   1_556 S
C386   C387    1.572   .     S
C386   O393    1.450   1_556 S
C387   C390    1.413   .     A
C387   C391    1.417   1_556 A
C388   C392    1.415   .     A
C388   C394    1.421   1_556 A
S389   C394    1.812   .     S
S389   O396    1.613   .     A
S389   O397    1.613   .     A
S389   O395    1.548   .     D
C390   C392    1.424   .     A
C390   H398    1.083   .     S
C391   C387    1.417   1_554 A
C391   H399    1.082   .     S
C391   C394    1.427   .     A
O393   C386    1.450   1_554 S
O393   Zr771   2.184   1_565 S
C394   C388    1.421   1_554 A
H400   C648    1.083   .     S
O401   C402    1.452   .     S
O401   Zr779   2.194   1_655 S
C402   C403    1.572   .     S
C402   O409    1.450   .     S
C403   C406    1.413   .     A
C403   C407    1.417   .     A
C404   C408    1.415   .     A
C404   C410    1.421   .     A
S405   C410    1.812   .     S
S405   O412    1.613   .     A
S405   O413    1.613   .     A
S405   O411    1.548   .     D
C406   C408    1.424   .     A
C406   H414    1.083   .     S
C407   H415    1.082   .     S
C407   C410    1.427   .     A
O409   Zr772   2.184   .     S
H416   C664    1.083   .     S
O417   C418    1.452   .     S
O417   Zr778   2.194   .     S
C418   C419    1.572   .     S
C418   O425    1.450   .     S
C419   C422    1.413   .     A
C419   C423    1.417   .     A
C420   C424    1.415   .     A
C420   C426    1.421   .     A
S421   C426    1.812   .     S
S421   O428    1.613   .     A
S421   O429    1.613   .     A
S421   O427    1.548   .     D
C422   C424    1.424   .     A
C422   H430    1.083   .     S
C423   H431    1.082   .     S
C423   C426    1.427   .     A
O425   Zr769   2.184   1_565 S
H432   C680    1.083   .     S
O433   C434    1.452   1_554 S
O433   Zr777   2.194   .     S
C434   O433    1.452   1_556 S
C434   C435    1.572   .     S
C434   O441    1.450   1_556 S
C435   C438    1.413   .     A
C435   C439    1.417   1_556 A
C436   C440    1.415   .     A
C436   C442    1.421   1_556 A
S437   C442    1.812   .     S
S437   O444    1.613   .     A
S437   O445    1.613   .     A
S437   O443    1.548   .     D
C438   C440    1.424   .     A
C438   H446    1.083   .     S
C439   C435    1.417   1_554 A
C439   H447    1.082   .     S
C439   C442    1.427   .     A
O441   C434    1.450   1_554 S
O441   Zr770   2.184   .     S
C442   C436    1.421   1_554 A
H448   C696    1.083   .     S
O449   C450    1.452   1_556 S
O449   Zr784   2.194   1_656 S
C450   O449    1.452   1_554 S
C450   C451    1.572   .     S
C450   O457    1.450   1_554 S
C451   C454    1.413   .     A
C451   C455    1.417   1_554 A
C452   C456    1.415   .     A
C452   C458    1.421   1_554 A
S453   C458    1.812   .     S
S453   O460    1.613   .     A
S453   O461    1.613   .     A
S453   O459    1.548   .     D
C454   C456    1.424   .     A
C454   H462    1.083   .     S
C455   C451    1.417   1_556 A
C455   H463    1.082   .     S
C455   C458    1.427   .     A
O457   C450    1.450   1_556 S
O457   Zr771   2.184   1_556 S
C458   C452    1.421   1_556 A
H464   C520    1.083   .     S
O465   C466    1.452   .     S
O465   Zr783   2.194   1_655 S
C466   C467    1.572   .     S
C466   O473    1.450   .     S
C467   C470    1.413   .     A
C467   C471    1.417   .     A
C468   C472    1.415   .     A
C468   C474    1.421   .     A
S469   C474    1.812   .     S
S469   O476    1.613   .     A
S469   O477    1.613   .     A
S469   O475    1.548   .     D
C470   C472    1.424   .     A
C470   H478    1.083   .     S
C471   H479    1.082   .     S
C471   C474    1.427   .     A
O473   Zr772   2.184   .     S
H480   C536    1.083   .     S
O481   C482    1.452   .     S
O481   Zr782   2.194   .     S
C482   C483    1.572   .     S
C482   O489    1.450   .     S
C483   C486    1.413   .     A
C483   C487    1.417   .     A
C484   C488    1.415   .     A
C484   C490    1.421   .     A
S485   C490    1.812   .     S
S485   O492    1.613   .     A
S485   O493    1.613   .     A
S485   O491    1.548   .     D
C486   C488    1.424   .     A
C486   H494    1.083   .     S
C487   H495    1.082   .     S
C487   C490    1.427   .     A
O489   Zr769   2.184   .     S
H496   C552    1.083   .     S
O497   C498    1.452   1_556 S
O497   Zr781   2.194   1_556 S
C498   O497    1.452   1_554 S
C498   C499    1.572   .     S
C498   O505    1.450   1_554 S
C499   C502    1.413   .     A
C499   C503    1.417   1_554 A
C500   C504    1.415   .     A
C500   C506    1.421   1_554 A
S501   C506    1.812   .     S
S501   O508    1.613   .     A
S501   O509    1.613   .     A
S501   O507    1.548   .     D
C502   C504    1.424   .     A
C502   H510    1.083   .     S
C503   C499    1.417   1_556 A
C503   H511    1.082   .     S
C503   C506    1.427   .     A
O505   C498    1.450   1_556 S
O505   Zr770   2.184   1_556 S
C506   C500    1.421   1_556 A
H512   C568    1.083   .     S
O513   C514    1.452   1_455 S
O513   Zr790   2.194   .     S
C514   O513    1.452   1_655 S
C514   C515    1.572   .     S
C514   O521    1.450   1_655 S
C515   C518    1.413   .     A
C515   C519    1.417   1_655 A
C516   C520    1.415   .     A
C516   C522    1.421   1_655 A
C516   C660    1.542   .     S
S517   C522    1.812   .     S
S517   O524    1.613   .     A
S517   O525    1.613   .     A
S517   O523    1.548   .     D
C518   C520    1.424   .     A
C518   H526    1.083   .     S
C519   C515    1.417   1_455 A
C519   H527    1.082   .     S
C519   C522    1.427   .     A
O521   C514    1.450   1_455 S
O521   Zr784   2.184   .     S
C522   C516    1.421   1_455 A
O529   C530    1.452   1_455 S
O529   Zr789   2.194   .     S
C530   O529    1.452   1_655 S
C530   C531    1.572   .     S
C530   O537    1.450   1_655 S
C531   C534    1.413   .     A
C531   C535    1.417   1_655 A
C532   C536    1.415   .     A
C532   C538    1.421   1_655 A
C532   C644    1.542   .     S
S533   C538    1.812   .     S
S533   O540    1.613   .     A
S533   O541    1.613   .     A
S533   O539    1.548   .     D
C534   C536    1.424   .     A
C534   H542    1.083   .     S
C535   C531    1.417   1_455 A
C535   H543    1.082   .     S
C535   C538    1.427   .     A
O537   C530    1.450   1_455 S
O537   Zr783   2.184   .     S
C538   C532    1.421   1_455 A
O545   C546    1.452   .     S
O545   Zr792   2.194   .     S
C546   C547    1.572   .     S
C546   O553    1.450   .     S
C547   C550    1.413   .     A
C547   C551    1.417   .     A
C548   C552    1.415   .     A
C548   C554    1.421   .     A
C548   C692    1.542   .     S
S549   C554    1.812   .     S
S549   O556    1.613   .     A
S549   O557    1.613   .     A
S549   O555    1.548   .     D
C550   C552    1.424   .     A
C550   H558    1.083   .     S
C551   H559    1.082   .     S
C551   C554    1.427   .     A
O553   Zr782   2.184   .     S
O561   C562    1.452   .     S
O561   Zr791   2.194   .     S
C562   C563    1.572   .     S
C562   O569    1.450   .     S
C563   C566    1.413   .     A
C563   C567    1.417   .     A
C564   C568    1.415   .     A
C564   C570    1.421   .     A
C564   C676    1.542   .     S
S565   C570    1.812   .     S
S565   O572    1.613   .     A
S565   O573    1.613   .     A
S565   O571    1.548   .     D
C566   C568    1.424   .     A
C566   H574    1.083   .     S
C567   H575    1.082   .     S
C567   C570    1.427   .     A
O569   Zr781   2.184   .     S
O577   C578    1.452   1_655 S
O577   Zr786   2.194   1_655 S
C578   O577    1.452   1_455 S
C578   C579    1.572   .     S
C578   O585    1.450   1_455 S
C579   C582    1.413   .     A
C579   C583    1.417   1_455 A
C580   C584    1.415   .     A
C580   C586    1.421   1_455 A
C580   C724    1.542   .     S
S581   C586    1.812   .     S
S581   O588    1.613   .     A
S581   O589    1.613   .     A
S581   O587    1.548   .     D
C582   C584    1.424   .     A
C582   H590    1.083   .     S
C583   C579    1.417   1_655 A
C583   H591    1.082   .     S
C583   C586    1.427   .     A
O585   C578    1.450   1_655 S
O585   Zr784   2.184   1_656 S
C586   C580    1.421   1_655 A
O593   C594    1.452   1_655 S
O593   Zr785   2.194   1_655 S
C594   O593    1.452   1_455 S
C594   C595    1.572   .     S
C594   O601    1.450   1_455 S
C595   C598    1.413   .     A
C595   C599    1.417   1_455 A
C596   C600    1.415   .     A
C596   C602    1.421   1_455 A
C596   C708    1.542   .     S
S597   C602    1.812   .     S
S597   O604    1.613   .     A
S597   O605    1.613   .     A
S597   O603    1.548   .     D
C598   C600    1.424   .     A
C598   H606    1.083   .     S
C599   C595    1.417   1_655 A
C599   H607    1.082   .     S
C599   C602    1.427   .     A
O601   C594    1.450   1_655 S
O601   Zr783   2.184   1_655 S
C602   C596    1.421   1_655 A
O609   C610    1.452   .     S
O609   Zr788   2.194   .     S
C610   C611    1.572   .     S
C610   O617    1.450   .     S
C611   C614    1.413   .     A
C611   C615    1.417   .     A
C612   C616    1.415   .     A
C612   C618    1.421   .     A
C612   C756    1.542   .     S
S613   C618    1.812   .     S
S613   O620    1.613   .     A
S613   O621    1.613   .     A
S613   O619    1.548   .     D
C614   C616    1.424   .     A
C614   H622    1.083   .     S
C615   H623    1.082   .     S
C615   C618    1.427   .     A
O617   Zr782   2.184   .     S
O625   C626    1.452   .     S
O625   Zr787   2.194   .     S
C626   C627    1.572   .     S
C626   O633    1.450   .     S
C627   C630    1.413   .     A
C627   C631    1.417   .     A
C628   C632    1.415   .     A
C628   C634    1.421   .     A
C628   C740    1.542   .     S
S629   C634    1.812   .     S
S629   O636    1.613   .     A
S629   O637    1.613   .     A
S629   O635    1.548   .     D
C630   C632    1.424   .     A
C630   H638    1.083   .     S
C631   H639    1.082   .     S
C631   C634    1.427   .     A
O633   Zr781   2.184   1_556 S
O641   C642    1.452   1_455 S
O641   Zr786   2.194   1_565 S
C642   O641    1.452   1_655 S
C642   C643    1.572   .     S
C642   O649    1.450   1_655 S
C643   C646    1.413   .     A
C643   C647    1.417   1_655 A
C644   C648    1.415   .     A
C644   C650    1.421   1_655 A
S645   C650    1.812   .     S
S645   O652    1.613   .     A
S645   O653    1.613   .     A
S645   O651    1.548   .     D
C646   C648    1.424   .     A
C646   H654    1.083   .     S
C647   C643    1.417   1_455 A
C647   H655    1.082   .     S
C647   C650    1.427   .     A
O649   C642    1.450   1_455 S
O649   Zr780   2.184   1_556 S
C650   C644    1.421   1_455 A
O657   C658    1.452   1_455 S
O657   Zr785   2.194   .     S
C658   O657    1.452   1_655 S
C658   C659    1.572   .     S
C658   O665    1.450   1_655 S
C659   C662    1.413   .     A
C659   C663    1.417   1_655 A
C660   C664    1.415   .     A
C660   C666    1.421   1_655 A
S661   C666    1.812   .     S
S661   O668    1.613   .     A
S661   O669    1.613   .     A
S661   O667    1.548   .     D
C662   C664    1.424   .     A
C662   H670    1.083   .     S
C663   C659    1.417   1_455 A
C663   H671    1.082   .     S
C663   C666    1.427   .     A
O665   C658    1.450   1_455 S
O665   Zr779   2.184   .     S
C666   C660    1.421   1_455 A
O673   C674    1.452   .     S
O673   Zr788   2.194   1_565 S
C674   C675    1.572   .     S
C674   O681    1.450   .     S
C675   C678    1.413   .     A
C675   C679    1.417   .     A
C676   C680    1.415   .     A
C676   C682    1.421   .     A
S677   C682    1.812   .     S
S677   O684    1.613   .     A
S677   O685    1.613   .     A
S677   O683    1.548   .     D
C678   C680    1.424   .     A
C678   H686    1.083   .     S
C679   H687    1.082   .     S
C679   C682    1.427   .     A
O681   Zr778   2.184   .     S
O689   C690    1.452   .     S
O689   Zr787   2.194   .     S
C690   C691    1.572   .     S
C690   O697    1.450   .     S
C691   C694    1.413   .     A
C691   C695    1.417   .     A
C692   C696    1.415   .     A
C692   C698    1.421   .     A
S693   C698    1.812   .     S
S693   O700    1.613   .     A
S693   O701    1.613   .     A
S693   O699    1.548   .     D
C694   C696    1.424   .     A
C694   H702    1.083   .     S
C695   H703    1.082   .     S
C695   C698    1.427   .     A
O697   Zr777   2.184   1_556 S
O705   C706    1.452   1_655 S
O705   Zr790   2.194   1_665 S
C706   O705    1.452   1_455 S
C706   C707    1.572   .     S
C706   O713    1.450   1_455 S
C707   C710    1.413   .     A
C707   C711    1.417   1_455 A
C708   C712    1.415   .     A
C708   C714    1.421   1_455 A
S709   C714    1.812   .     S
S709   O716    1.613   .     A
S709   O717    1.613   .     A
S709   O715    1.548   .     D
C710   C712    1.424   .     A
C710   H718    1.083   .     S
C711   C707    1.417   1_655 A
C711   H719    1.082   .     S
C711   C714    1.427   .     A
O713   C706    1.450   1_655 S
O713   Zr780   2.184   1_655 S
C714   C708    1.421   1_655 A
O721   C722    1.452   1_655 S
O721   Zr789   2.194   1_655 S
C722   O721    1.452   1_455 S
C722   C723    1.572   .     S
C722   O729    1.450   1_455 S
C723   C726    1.413   .     A
C723   C727    1.417   1_455 A
C724   C728    1.415   .     A
C724   C730    1.421   1_455 A
S725   C730    1.812   .     S
S725   O732    1.613   .     A
S725   O733    1.613   .     A
S725   O731    1.548   .     D
C726   C728    1.424   .     A
C726   H734    1.083   .     S
C727   C723    1.417   1_655 A
C727   H735    1.082   .     S
C727   C730    1.427   .     A
O729   C722    1.450   1_655 S
O729   Zr779   2.184   1_655 S
C730   C724    1.421   1_655 A
O737   C738    1.452   .     S
O737   Zr792   2.194   1_565 S
C738   C739    1.572   .     S
C738   O745    1.450   .     S
C739   C742    1.413   .     A
C739   C743    1.417   .     A
C740   C744    1.415   .     A
C740   C746    1.421   .     A
S741   C746    1.812   .     S
S741   O748    1.613   .     A
S741   O749    1.613   .     A
S741   O747    1.548   .     D
C742   C744    1.424   .     A
C742   H750    1.083   .     S
C743   H751    1.082   .     S
C743   C746    1.427   .     A
O745   Zr778   2.184   .     S
O753   C754    1.452   .     S
O753   Zr791   2.194   .     S
C754   C755    1.572   .     S
C754   O761    1.450   .     S
C755   C758    1.413   .     A
C755   C759    1.417   .     A
C756   C760    1.415   .     A
C756   C762    1.421   .     A
S757   C762    1.812   .     S
S757   O764    1.613   .     A
S757   O765    1.613   .     A
S757   O763    1.548   .     D
C758   C760    1.424   .     A
C758   H766    1.083   .     S
C759   H767    1.082   .     S
C759   C762    1.427   .     A
O761   Zr777   2.184   .     S
Zr769  O97     2.194   1_545 S
Zr769  O425    2.184   1_545 S
Zr769  O793    2.072   .     S
Zr769  O796    2.072   1_545 S
Zr769  O809    2.082   .     S
Zr769  O814    2.082   1_545 S
Zr769  Zr782   3.118   .     S
Zr769  Zr778   3.118   1_545 S
Zr769  Zr788   3.118   .     S
Zr769  Zr792   3.118   .     S
Zr770  O177    2.194   1_554 S
Zr770  O505    2.184   1_554 S
Zr770  O799    2.072   .     S
Zr770  O800    2.072   1_554 S
Zr770  O816    2.082   1_554 S
Zr770  O815    2.082   .     S
Zr770  Zr781   3.118   .     S
Zr770  Zr777   3.118   .     S
Zr770  Zr787   3.118   1_554 S
Zr770  Zr791   3.118   .     S
Zr771  O65     2.194   1_545 S
Zr771  O129    2.194   1_554 S
Zr771  O457    2.184   1_554 S
Zr771  O393    2.184   1_545 S
Zr771  O804    2.072   .     S
Zr771  O808    2.072   1_544 S
Zr771  O824    2.082   1_554 S
Zr771  O821    2.082   1_545 S
Zr771  Zr784   3.118   1_655 S
Zr771  Zr780   3.118   1_645 S
Zr771  Zr786   3.118   1_654 S
Zr771  Zr790   3.118   1_655 S
Zr772  O803    2.072   .     S
Zr772  O807    2.072   .     S
Zr772  O823    2.082   .     S
Zr772  O820    2.082   .     S
Zr772  Zr783   3.118   1_655 S
Zr772  Zr779   3.118   1_655 S
Zr772  Zr785   3.118   1_655 S
Zr772  Zr789   3.118   1_655 S
Zr773  O225    2.194   1_545 S
Zr773  O361    2.184   1_545 S
Zr773  O794    2.072   1_545 S
Zr773  O795    2.072   .     S
Zr773  O810    2.082   1_545 S
Zr773  O812    2.082   .     S
Zr773  Zr778   3.118   1_545 S
Zr773  Zr782   3.118   .     S
Zr773  Zr788   3.118   .     S
Zr773  Zr792   3.118   .     S
Zr774  O241    2.194   1_554 S
Zr774  O377    2.184   1_554 S
Zr774  O797    2.072   .     S
Zr774  O798    2.072   1_554 S
Zr774  O818    2.082   1_554 S
Zr774  O817    2.082   .     S
Zr774  Zr777   3.118   .     S
Zr774  Zr781   3.118   .     S
Zr774  Zr787   3.118   1_554 S
Zr774  Zr791   3.118   .     S
Zr775  O193    2.194   1_544 S
Zr775  O329    2.184   1_544 S
Zr775  O806    2.072   1_545 S
Zr775  O802    2.072   1_554 S
Zr775  O819    2.082   1_544 S
Zr775  O813    2.082   .     S
Zr775  Zr780   3.118   1_545 S
Zr775  Zr784   3.118   .     S
Zr775  Zr786   3.118   1_554 S
Zr775  Zr790   3.118   .     S
Zr776  O805    2.072   .     S
Zr776  O801    2.072   .     S
Zr776  O811    2.082   .     S
Zr776  O822    2.082   .     S
Zr776  Zr779   3.118   .     S
Zr776  Zr783   3.118   .     S
Zr776  Zr785   3.118   .     S
Zr776  Zr789   3.118   .     S
Zr777  O369    2.194   1_554 S
Zr777  O697    2.184   1_554 S
Zr777  O797    2.072   .     S
Zr777  O800    2.072   1_554 S
Zr777  O815    2.082   .     S
Zr777  O818    2.082   1_554 S
Zr777  Zr791   3.118   .     S
Zr777  Zr787   3.118   1_554 S
Zr778  O794    2.072   .     S
Zr778  O796    2.072   .     S
Zr778  O814    2.082   .     S
Zr778  O810    2.082   .     S
Zr778  Zr792   3.118   1_565 S
Zr778  Zr788   3.118   1_565 S
Zr778  Zr769   3.118   1_565 S
Zr778  Zr773   3.118   1_565 S
Zr779  O401    2.194   1_455 S
Zr779  O729    2.184   1_455 S
Zr779  O805    2.072   .     S
Zr779  O807    2.072   1_455 S
Zr779  O820    2.082   1_455 S
Zr779  O811    2.082   .     S
Zr779  Zr789   3.118   .     S
Zr779  Zr785   3.118   .     S
Zr779  Zr772   3.118   1_455 S
Zr780  O321    2.194   1_554 S
Zr780  O385    2.194   1_455 S
Zr780  O713    2.184   1_455 S
Zr780  O649    2.184   1_554 S
Zr780  O806    2.072   .     S
Zr780  O808    2.072   1_454 S
Zr780  O821    2.082   1_455 S
Zr780  O819    2.082   1_554 S
Zr780  Zr790   3.118   1_565 S
Zr780  Zr786   3.118   1_564 S
Zr780  Zr771   3.118   1_465 S
Zr780  Zr775   3.118   1_565 S
Zr781  O497    2.194   1_554 S
Zr781  O633    2.184   1_554 S
Zr781  O798    2.072   1_554 S
Zr781  O799    2.072   .     S
Zr781  O816    2.082   1_554 S
Zr781  O817    2.082   .     S
Zr781  Zr787   3.118   1_554 S
Zr781  Zr791   3.118   .     S
Zr782  O795    2.072   .     S
Zr782  O793    2.072   .     S
Zr782  O809    2.082   .     S
Zr782  O812    2.082   .     S
Zr782  Zr788   3.118   .     S
Zr782  Zr792   3.118   .     S
Zr783  O465    2.194   1_455 S
Zr783  O601    2.184   1_455 S
Zr783  O801    2.072   .     S
Zr783  O803    2.072   1_455 S
Zr783  O823    2.082   1_455 S
Zr783  O822    2.082   .     S
Zr783  Zr785   3.118   .     S
Zr783  Zr789   3.118   .     S
Zr783  Zr772   3.118   1_455 S
Zr784  O449    2.194   1_454 S
Zr784  O585    2.184   1_454 S
Zr784  O802    2.072   1_554 S
Zr784  O804    2.072   1_455 S
Zr784  O824    2.082   1_454 S
Zr784  O813    2.082   .     S
Zr784  Zr786   3.118   1_554 S
Zr784  Zr790   3.118   .     S
Zr784  Zr771   3.118   1_455 S
Zr785  O593    2.194   1_455 S
Zr785  O153    2.184   1_455 S
Zr785  O801    2.072   .     S
Zr785  O807    2.072   1_455 S
Zr785  O811    2.082   .     S
Zr785  O823    2.082   1_455 S
Zr785  Zr772   3.118   1_455 S
Zr786  O577    2.194   1_455 S
Zr786  O641    2.194   1_545 S
Zr786  O201    2.184   1_545 S
Zr786  O137    2.184   1_455 S
Zr786  O802    2.072   .     S
Zr786  O808    2.072   1_445 S
Zr786  O819    2.082   1_545 S
Zr786  O824    2.082   1_455 S
Zr786  Zr775   3.118   1_556 S
Zr786  Zr771   3.118   1_456 S
Zr786  Zr780   3.118   1_546 S
Zr786  Zr784   3.118   1_556 S
Zr787  O798    2.072   .     S
Zr787  O800    2.072   .     S
Zr787  O818    2.082   .     S
Zr787  O816    2.082   .     S
Zr787  Zr774   3.118   1_556 S
Zr787  Zr770   3.118   1_556 S
Zr787  Zr777   3.118   1_556 S
Zr787  Zr781   3.118   1_556 S
Zr788  O673    2.194   1_545 S
Zr788  O233    2.184   1_545 S
Zr788  O795    2.072   .     S
Zr788  O796    2.072   1_545 S
Zr788  O810    2.082   1_545 S
Zr788  O809    2.082   .     S
Zr788  Zr778   3.118   1_545 S
Zr789  O721    2.194   1_455 S
Zr789  O89     2.184   1_455 S
Zr789  O803    2.072   1_455 S
Zr789  O805    2.072   .     S
Zr789  O820    2.082   1_455 S
Zr789  O822    2.082   .     S
Zr789  Zr772   3.118   1_455 S
Zr790  O705    2.194   1_445 S
Zr790  O73     2.184   1_445 S
Zr790  O804    2.072   1_455 S
Zr790  O806    2.072   1_545 S
Zr790  O821    2.082   1_445 S
Zr790  O813    2.082   .     S
Zr790  Zr771   3.118   1_455 S
Zr790  Zr780   3.118   1_545 S
Zr791  O799    2.072   .     S
Zr791  O797    2.072   .     S
Zr791  O815    2.082   .     S
Zr791  O817    2.082   .     S
Zr792  O737    2.194   1_545 S
Zr792  O105    2.184   1_545 S
Zr792  O793    2.072   .     S
Zr792  O794    2.072   1_545 S
Zr792  O814    2.082   1_545 S
Zr792  O812    2.082   .     S
Zr792  Zr778   3.118   1_545 S
O794   Zr773   2.072   1_565 S
O794   Zr792   2.072   1_565 S
O796   Zr769   2.072   1_565 S
O796   Zr788   2.072   1_565 S
O798   Zr781   2.072   1_556 S
O798   Zr774   2.072   1_556 S
O800   Zr777   2.072   1_556 S
O800   Zr770   2.072   1_556 S
O802   Zr775   2.072   1_556 S
O802   Zr784   2.072   1_556 S
O803   Zr789   2.072   1_655 S
O803   Zr783   2.072   1_655 S
O804   Zr790   2.072   1_655 S
O804   Zr784   2.072   1_655 S
O806   Zr790   2.072   1_565 S
O806   Zr775   2.072   1_565 S
O807   Zr785   2.072   1_655 S
O807   Zr779   2.072   1_655 S
O808   Zr786   2.072   1_665 S
O808   Zr771   2.072   1_566 S
O808   Zr780   2.072   1_656 S
O810   Zr773   2.082   1_565 S
O810   Zr788   2.082   1_565 S
O814   Zr769   2.082   1_565 S
O814   Zr792   2.082   1_565 S
O816   Zr781   2.082   1_556 S
O816   Zr770   2.082   1_556 S
O818   Zr777   2.082   1_556 S
O818   Zr774   2.082   1_556 S
O819   Zr786   2.082   1_565 S
O819   Zr775   2.082   1_566 S
O819   Zr780   2.082   1_556 S
O820   Zr789   2.082   1_655 S
O820   Zr779   2.082   1_655 S
O821   Zr790   2.082   1_665 S
O821   Zr771   2.082   1_565 S
O821   Zr780   2.082   1_655 S
O823   Zr785   2.082   1_655 S
O823   Zr783   2.082   1_655 S
O824   Zr786   2.082   1_655 S
O824   Zr771   2.082   1_556 S
O824   Zr784   2.082   1_656 S
