data_image0
_chemical_formula_structural       OCH2OCHO2CHO2CH2OCH2OCH2OCHO2CHOCHOCHOCH2OCH2OCHOCHO2CHO2CHO2CH2OCH2OCH2OCHOCHOCH2OCH2OCH2Fe6O2C24
_chemical_formula_sum              "O32 C48 H36 Fe6"
_cell_length_a       11.6165
_cell_length_b       11.6165
_cell_length_c       18.8267
_cell_angle_alpha    90
_cell_angle_beta     90
_cell_angle_gamma    120

_space_group_name_H-M_alt    "P 1"
_space_group_IT_number       1

loop_
  _space_group_symop_operation_xyz
  'x, y, z'

loop_
  _atom_site_type_symbol
  _atom_site_label
  _atom_site_symmetry_multiplicity
  _atom_site_fract_x
  _atom_site_fract_y
  _atom_site_fract_z
  _atom_site_occupancy
  O   O1        1.0  0.67825  0.53691  0.16144  1.0000
  C   C1        1.0  0.60070  0.47877  0.00782  1.0000
  H   H1        1.0  0.66339  0.56129  0.60361  1.0000
  H   H2        1.0  0.95328  0.20763  0.24875  1.0000
  O   O2        1.0  0.46153  0.14086  0.16129  1.0000
  C   C2        1.0  0.52242  0.12247  0.00742  1.0000
  H   H3        1.0  0.43365  0.09950  0.60293  1.0000
  O   O3        1.0  0.85778  0.71719  0.25063  1.0000
  O   O4        1.0  0.85745  0.32020  0.16118  1.0000
  C   C3        1.0  0.87576  0.39993  0.00728  1.0000
  H   H4        1.0  0.89662  0.33555  0.60375  1.0000
  O   O5        1.0  0.28123  0.13985  0.25056  1.0000
  O   O6        1.0  0.32011  0.46186  0.66120  1.0000
  C   C4        1.0  0.39928  0.52225  0.50750  1.0000
  H   H5        1.0  0.33284  0.43253  0.10292  1.0000
  H   H6        1.0  0.04503  0.79084  0.74899  1.0000
  O   O7        1.0  0.53664  0.85766  0.66125  1.0000
  C   C5        1.0  0.47790  0.87679  0.50768  1.0000
  H   H7        1.0  0.55972  0.89655  0.10375  1.0000
  H   H8        1.0  0.20761  0.25357  0.74927  1.0000
  O   O8        1.0  0.14074  0.67829  0.66123  1.0000
  C   C6        1.0  0.12235  0.59889  0.50743  1.0000
  H   H9        1.0  0.10240  0.66215  0.10390  1.0000
  H   H10       1.0  0.74488  0.95337  0.74929  1.0000
  O   O9        1.0  0.53497  0.67863  0.84009  1.0000
  C   C7        1.0  0.56579  0.50856  0.94053  1.0000
  H   H11       1.0  0.72072  0.50350  0.48804  1.0000
  O   O10       1.0  0.14061  0.85871  0.75127  1.0000
  O   O11       1.0  0.14261  0.46337  0.84003  1.0000
  C   C8        1.0  0.94062  0.43493  0.94003  1.0000
  H   H12       1.0  0.78148  0.27813  0.48818  1.0000
  O   O12       1.0  0.31989  0.85599  0.84000  1.0000
  C   C9        1.0  0.49268  0.05771  0.94014  1.0000
  H   H13       1.0  0.49149  0.21449  0.48733  1.0000
  O   O13       1.0  0.46357  0.31982  0.34025  1.0000
  C   C10       1.0  0.43426  0.49247  0.44022  1.0000
  H   H14       1.0  0.27555  0.49037  0.98735  1.0000
  O   O14       1.0  0.85571  0.53486  0.34017  1.0000
  C   C11       1.0  0.05758  0.56383  0.44015  1.0000
  H   H15       1.0  0.21765  0.71941  0.98837  1.0000
  H   H16       1.0  0.25382  0.20795  0.25253  1.0000
  O   O15       1.0  0.67859  0.14260  0.34003  1.0000
  C   C12       1.0  0.50776  0.94144  0.44038  1.0000
  H   H17       1.0  0.50199  0.78146  0.98818  1.0000
  H   H18       1.0  0.95333  0.74465  0.25209  1.0000
  O   O16       1.0  0.37595  0.46801  0.80787  1.0000
  C   C13       1.0  0.36607  0.48576  0.99135  1.0000
  H   H19       1.0  0.36709  0.47175  0.39597  1.0000
  O   O17       1.0  0.53044  0.90727  0.80791  1.0000
  C   C14       1.0  0.50932  0.87786  0.99181  1.0000
  H   H20       1.0  0.53010  0.89571  0.39639  1.0000
  O   O18       1.0  0.13976  0.28130  0.75128  1.0000
  O   O19       1.0  0.09126  0.62264  0.80795  1.0000
  C   C15       1.0  0.12108  0.63059  0.99193  1.0000
  H   H21       1.0  0.10424  0.63070  0.39583  1.0000
  O   O20       1.0  0.71714  0.85778  0.75135  1.0000
  O   O21       1.0  0.62223  0.53040  0.30783  1.0000
  C   C16       1.0  0.63134  0.51025  0.49175  1.0000
  H   H22       1.0  0.63398  0.53124  0.89657  1.0000
  O   O22       1.0  0.85770  0.13976  0.25117  1.0000
  O   O23       1.0  0.46800  0.09088  0.30768  1.0000
  C   C17       1.0  0.48616  0.11902  0.49127  1.0000
  H   H23       1.0  0.47236  0.10434  0.89583  1.0000
  H   H24       1.0  0.84060  0.74457  0.29742  1.0000
  O   O24       1.0  0.90721  0.37583  0.30790  1.0000
  C   C18       1.0  0.87779  0.36731  0.49184  1.0000
  H   H25       1.0  0.89371  0.36834  0.89562  1.0000
  H   H26       1.0  0.25376  0.09444  0.29714  1.0000
  O   O25       1.0  0.46742  0.37558  0.19274  1.0000
  C   C19       1.0  0.39979  0.45278  0.05865  1.0000
  H   H27       1.0  0.30720  0.52330  0.51153  1.0000
  H   H28       1.0  0.83918  0.09322  0.20491  1.0000
  O   O26       1.0  0.90731  0.53106  0.19269  1.0000
  C   C20       1.0  0.05429  0.59691  0.05919  1.0000
  H   H29       1.0  0.21578  0.69077  0.51137  1.0000
  O   O27       1.0  0.62246  0.09092  0.19279  1.0000
  C   C21       1.0  0.54231  0.94456  0.05910  1.0000
  H   H30       1.0  0.47851  0.78446  0.51200  1.0000
  O   O28       1.0  0.53092  0.62265  0.69285  1.0000
  C   C22       1.0  0.59765  0.54328  0.55904  1.0000
  H   H31       1.0  0.69387  0.47990  0.01216  1.0000
  H   H32       1.0  0.15892  0.90517  0.70500  1.0000
  O   O29       1.0  0.09082  0.46750  0.69283  1.0000
  C   C23       1.0  0.94450  0.40108  0.55913  1.0000
  H   H33       1.0  0.78211  0.30837  0.01116  1.0000
  H   H34       1.0  0.74528  0.83979  0.70499  1.0000
  O   O30       1.0  0.37570  0.90756  0.69273  1.0000
  C   C24       1.0  0.45322  0.05243  0.55860  1.0000
  H   H35       1.0  0.52391  0.21589  0.01139  1.0000
  H   H36       1.0  0.09366  0.25315  0.70491  1.0000
  Fe  Fe1       1.0  0.76259  0.52634  0.25051  1.0000
  Fe  Fe2       1.0  0.47210  0.23547  0.25047  1.0000
  Fe  Fe3       1.0  0.76280  0.23572  0.25044  1.0000
  Fe  Fe4       1.0  0.23570  0.47216  0.75044  1.0000
  Fe  Fe5       1.0  0.52627  0.76290  0.75048  1.0000
  Fe  Fe6       1.0  0.23554  0.76278  0.75044  1.0000
  O   O31       1.0  0.66588  0.33256  0.25004  1.0000
  O   O32       1.0  0.33250  0.66595  0.74987  1.0000
  C   C25       1.0  0.56362  0.42150  0.13794  1.0000
  C   C26       1.0  0.51924  0.44942  0.06891  1.0000
  C   C27       1.0  0.57682  0.14130  0.13791  1.0000
  C   C28       1.0  0.54893  0.06897  0.06890  1.0000
  C   C29       1.0  0.85700  0.43504  0.13781  1.0000
  C   C30       1.0  0.92951  0.47950  0.06885  1.0000
  C   C31       1.0  0.43503  0.57713  0.63790  1.0000
  C   C32       1.0  0.47953  0.54926  0.56891  1.0000
  C   C33       1.0  0.42129  0.85708  0.63787  1.0000
  C   C34       1.0  0.44912  0.92927  0.56882  1.0000
  C   C35       1.0  0.14121  0.56344  0.63791  1.0000
  C   C36       1.0  0.06886  0.51895  0.56892  1.0000
  C   C37       1.0  0.41997  0.56283  0.86306  1.0000
  C   C38       1.0  0.44820  0.51465  0.93042  1.0000
  C   C39       1.0  0.14219  0.57853  0.86305  1.0000
  C   C40       1.0  0.06611  0.55049  0.93049  1.0000
  C   C41       1.0  0.43546  0.85643  0.86304  1.0000
  C   C42       1.0  0.48355  0.93258  0.93047  1.0000
  C   C43       1.0  0.57855  0.43571  0.36308  1.0000
  C   C44       1.0  0.55051  0.48386  0.43048  1.0000
  C   C45       1.0  0.85631  0.41977  0.36309  1.0000
  C   C46       1.0  0.93247  0.44782  0.43050  1.0000
  C   C47       1.0  0.56270  0.14170  0.36293  1.0000
  C   C48       1.0  0.51444  0.06539  0.43030  1.0000
