data_image0
_chemical_formula_structural       OCHOCHOCHOCHOCHOCHOCHOCHOCHOCHOCHOCHOCHOCHOCHOCHOCHOCHOCHOCHOCHOCHOCHOCHFe6O2C24O6H12
_chemical_formula_sum              "O32 C48 H36 Fe6"
_cell_length_a       16.3527
_cell_length_b       16.3527
_cell_length_c       15.535
_cell_angle_alpha    90
_cell_angle_beta     90
_cell_angle_gamma    120

_space_group_name_H-M_alt    "P 1"
_space_group_IT_number       1

loop_
  _space_group_symop_operation_xyz
  'x, y, z'

loop_
  _atom_site_type_symbol
  _atom_site_label
  _atom_site_symmetry_multiplicity
  _atom_site_fract_x
  _atom_site_fract_y
  _atom_site_fract_z
  _atom_site_occupancy
  O   O1        1.0  0.34264  0.52099  0.66797  1.0000
  C   C1        1.0  0.41037  0.44420  0.53706  1.0000
  H   H1        1.0  0.33947  0.39828  0.56069  1.0000
  O   O2        1.0  0.47823  0.82117  0.66615  1.0000
  C   C2        1.0  0.55481  0.96549  0.53602  1.0000
  H   H2        1.0  0.60098  0.94163  0.56139  1.0000
  O   O3        1.0  0.17882  0.65646  0.66634  1.0000
  C   C3        1.0  0.03575  0.58914  0.53683  1.0000
  H   H3        1.0  0.05928  0.65908  0.56231  1.0000
  O   O4        1.0  0.66238  0.48168  0.16489  1.0000
  C   C4        1.0  0.59470  0.55883  0.03519  1.0000
  H   H4        1.0  0.66631  0.60401  0.05752  1.0000
  O   O5        1.0  0.52480  0.18432  0.16362  1.0000
  C   C5        1.0  0.44948  0.05234  0.02411  1.0000
  H   H5        1.0  0.39934  0.05712  0.06921  1.0000
  O   O6        1.0  0.82318  0.34375  0.16254  1.0000
  C   C6        1.0  0.96575  0.41365  0.03362  1.0000
  H   H6        1.0  0.93907  0.34149  0.05458  1.0000
  O   O7        1.0  0.52505  0.34402  0.34302  1.0000
  C   C7        1.0  0.44723  0.40880  0.47420  1.0000
  H   H7        1.0  0.40296  0.33719  0.45149  1.0000
  O   O8        1.0  0.82283  0.47969  0.34246  1.0000
  C   C8        1.0  0.96630  0.55473  0.47219  1.0000
  H   H8        1.0  0.94262  0.60130  0.44742  1.0000
  O   O9        1.0  0.66081  0.18139  0.34140  1.0000
  C   C9        1.0  0.59051  0.03559  0.47154  1.0000
  H   H9        1.0  0.66093  0.05934  0.44720  1.0000
  O   O10       1.0  0.47891  0.65894  0.84263  1.0000
  C   C10       1.0  0.55777  0.59434  0.97270  1.0000
  H   H10       1.0  0.60260  0.66533  0.94876  1.0000
  O   O11       1.0  0.17874  0.52122  0.84516  1.0000
  C   C11       1.0  0.03616  0.44876  0.97416  1.0000
  H   H11       1.0  0.06203  0.40281  0.95258  1.0000
  O   O12       1.0  0.34049  0.82015  0.84215  1.0000
  C   C12       1.0  0.39901  0.95313  0.98132  1.0000
  H   H12       1.0  0.34518  0.94985  0.93567  1.0000
  O   O13       1.0  0.66050  0.48094  0.34171  1.0000
  C   C13       1.0  0.59302  0.55757  0.47299  1.0000
  H   H13       1.0  0.66389  0.60351  0.44931  1.0000
  O   O14       1.0  0.52432  0.18103  0.34009  1.0000
  C   C14       1.0  0.44918  0.04974  0.47992  1.0000
  H   H14       1.0  0.39879  0.05218  0.43351  1.0000
  O   O15       1.0  0.82432  0.34386  0.33953  1.0000
  C   C15       1.0  0.95203  0.39906  0.48127  1.0000
  H   H15       1.0  0.89655  0.35418  0.52843  1.0000
  O   O16       1.0  0.34256  0.52234  0.84430  1.0000
  C   C16       1.0  0.41021  0.44711  0.97476  1.0000
  H   H16       1.0  0.33859  0.40184  0.95249  1.0000
  O   O17       1.0  0.47738  0.82105  0.84252  1.0000
  C   C17       1.0  0.55366  0.96542  0.97152  1.0000
  H   H17       1.0  0.59945  0.94066  0.94704  1.0000
  O   O18       1.0  0.17785  0.65693  0.84263  1.0000
  C   C18       1.0  0.03241  0.59998  0.96330  1.0000
  H   H18       1.0  0.99029  0.60325  0.90875  1.0000
  O   O19       1.0  0.47824  0.65808  0.66657  1.0000
  C   C19       1.0  0.55616  0.59297  0.53585  1.0000
  H   H19       1.0  0.60042  0.66460  0.55852  1.0000
  O   O20       1.0  0.17883  0.51998  0.66773  1.0000
  C   C20       1.0  0.05040  0.44804  0.52600  1.0000
  H   H20       1.0  0.10593  0.45916  0.47868  1.0000
  O   O21       1.0  0.34127  0.81968  0.66572  1.0000
  C   C21       1.0  0.39959  0.95160  0.52506  1.0000
  H   H21       1.0  0.34608  0.94927  0.57056  1.0000
  O   O22       1.0  0.52463  0.34658  0.16709  1.0000
  C   C22       1.0  0.44710  0.41163  0.03720  1.0000
  H   H22       1.0  0.40221  0.34061  0.06104  1.0000
  O   O23       1.0  0.82573  0.48119  0.16644  1.0000
  C   C23       1.0  0.97153  0.56947  0.04600  1.0000
  H   H23       1.0  0.01397  0.61409  0.10078  1.0000
  O   O24       1.0  0.65914  0.18036  0.16478  1.0000
  C   C24       1.0  0.58951  0.03614  0.03518  1.0000
  H   H24       1.0  0.65957  0.05934  0.06018  1.0000
  Fe  Fe1       1.0  0.26390  0.52771  0.75622  1.0000
  Fe  Fe2       1.0  0.47152  0.73645  0.75452  1.0000
  Fe  Fe3       1.0  0.26294  0.73507  0.75424  1.0000
  Fe  Fe4       1.0  0.73954  0.47430  0.25378  1.0000
  Fe  Fe5       1.0  0.53130  0.26716  0.25341  1.0000
  Fe  Fe6       1.0  0.73863  0.26571  0.25206  1.0000
  O   O25       1.0  0.33273  0.66638  0.75479  1.0000
  O   O26       1.0  0.66982  0.33572  0.25295  1.0000
  C   C25       1.0  0.46400  0.53708  0.56921  1.0000
  C   C26       1.0  0.42566  0.57444  0.63855  1.0000
  C   C27       1.0  0.46156  0.92543  0.56698  1.0000
  C   C28       1.0  0.42467  0.85052  0.63702  1.0000
  C   C29       1.0  0.07570  0.53592  0.56762  1.0000
  C   C30       1.0  0.14922  0.57320  0.63805  1.0000
  C   C31       1.0  0.54011  0.46670  0.06865  1.0000
  C   C32       1.0  0.57835  0.42926  0.13748  1.0000
  C   C33       1.0  0.53751  0.07751  0.06579  1.0000
  C   C34       1.0  0.57652  0.15235  0.13542  1.0000
  C   C35       1.0  0.92738  0.46623  0.07048  1.0000
  C   C36       1.0  0.85523  0.42821  0.13574  1.0000
  C   C37       1.0  0.53938  0.46470  0.44082  1.0000
  C   C38       1.0  0.57761  0.42750  0.37124  1.0000
  C   C39       1.0  0.92658  0.46197  0.44049  1.0000
  C   C40       1.0  0.85313  0.42624  0.36999  1.0000
  C   C41       1.0  0.53808  0.07585  0.43937  1.0000
  C   C42       1.0  0.57718  0.15100  0.36954  1.0000
  C   C43       1.0  0.46475  0.53919  0.94123  1.0000
  C   C44       1.0  0.42615  0.57597  0.87212  1.0000
  C   C45       1.0  0.07548  0.54012  0.93802  1.0000
  C   C46       1.0  0.14755  0.57409  0.87268  1.0000
  C   C47       1.0  0.46064  0.92592  0.94033  1.0000
  C   C48       1.0  0.42379  0.85074  0.87097  1.0000
  O   O27       1.0  0.19494  0.80298  0.75386  1.0000
  O   O28       1.0  0.60742  0.80463  0.75500  1.0000
  O   O29       1.0  0.19691  0.39185  0.75771  1.0000
  O   O30       1.0  0.80829  0.61019  0.25499  1.0000
  O   O31       1.0  0.80638  0.19759  0.25184  1.0000
  O   O32       1.0  0.39540  0.19993  0.25311  1.0000
  H   H25       1.0  0.83023  0.63100  0.19535  1.0000
  H   H26       1.0  0.76136  0.63059  0.26513  1.0000
  H   H27       1.0  0.37496  0.13307  0.24032  1.0000
  H   H28       1.0  0.37501  0.19862  0.31337  1.0000
  H   H29       1.0  0.82629  0.19737  0.19167  1.0000
  H   H30       1.0  0.75936  0.13060  0.26339  1.0000
  H   H31       1.0  0.62730  0.87189  0.76489  1.0000
  H   H32       1.0  0.62805  0.80336  0.69531  1.0000
  H   H33       1.0  0.19408  0.82213  0.69354  1.0000
  H   H34       1.0  0.12807  0.75627  0.76617  1.0000
  H   H35       1.0  0.19742  0.37092  0.69798  1.0000
  H   H36       1.0  0.12969  0.37143  0.76852  1.0000
