data_MUKTUK_FSR
_audit_creation_date              2024-06-11
_audit_creation_method            'Materials Studio'
_symmetry_space_group_name_H-M    'P1'
_symmetry_Int_Tables_number       1
_symmetry_cell_setting            triclinic
loop_
_symmetry_equiv_pos_as_xyz
  x,y,z
_cell_length_a                    37.1270
_cell_length_b                    13.4130
_cell_length_c                    17.8080
_cell_angle_alpha                 90.0000
_cell_angle_beta                  90.0000
_cell_angle_gamma                 90.0000
loop_
_atom_site_label
_atom_site_type_symbol
_atom_site_fract_x
_atom_site_fract_y
_atom_site_fract_z
_atom_site_U_iso_or_equiv
_atom_site_adp_type
_atom_site_occupancy
S1     S     0.04452   0.63076   0.31127   0.04883  Uani   1.00
S2     S     0.04260   0.43232   0.23919   0.06003  Uani   1.00
O3     O     0.11999   0.94000   0.30290   0.06480  Uani   1.00
O4     O     0.17312   0.94840   0.36140   0.07580  Uani   1.00
O5     O     0.22992   0.63430   0.44749   0.03380  Uani   1.00
O6     O     0.20661   0.48830   0.41803   0.03773  Uani   1.00
O7     O     0.19615   0.53220   0.08140   0.04137  Uani   1.00
O8     O     0.21896   0.38340   0.07010   0.03913  Uani   1.00
O9     O     0.16713   0.09930   0.20550   0.10100  Uani   1.00
O10    O     0.12033   0.12170   0.27920   0.05713  Uani   1.00
H11    H     0.12284   0.06175   0.28638   0.08600  Uiso   1.00
C12    C     0.01804   0.53340   0.27570   0.04333  Uani   1.00
C13    C     0.08616   0.57490   0.28970   0.03243  Uani   1.00
C14    C     0.08534   0.48380   0.25740   0.03220  Uani   1.00
C15    C     0.11519   0.42330   0.22930   0.02703  Uani   1.00
C16    C     0.14171   0.46240   0.18040   0.03220  Uani   1.00
H17    H     0.14135   0.52978   0.16809   0.03800  Uiso   1.00
C18    C     0.16775   0.40230   0.15120   0.03050  Uani   1.00
C19    C     0.16880   0.30100   0.16810   0.03700  Uani   1.00
H20    H     0.18679   0.26072   0.14806   0.04400  Uiso   1.00
C21    C     0.14297   0.26080   0.21490   0.03967  Uani   1.00
C22    C     0.11662   0.32210   0.24460   0.03437  Uani   1.00
H23    H     0.09926   0.29443   0.27593   0.04100  Uiso   1.00
C24    C     0.19579   0.44090   0.09820   0.03167  Uani   1.00
C25    C     0.14418   0.15200   0.23280   0.05200  Uani   1.00
C26    C     0.11813   0.63140   0.31460   0.02870  Uani   1.00
C27    C     0.11867   0.73470   0.30980   0.03700  Uani   1.00
H28    H     0.09924   0.76805   0.28849   0.04500  Uiso   1.00
C29    C     0.14796   0.78880   0.33650   0.03633  Uani   1.00
C30    C     0.17663   0.73950   0.36980   0.03633  Uani   1.00
H31    H     0.19608   0.77553   0.38847   0.04400  Uiso   1.00
C32    C     0.17623   0.63590   0.37520   0.02833  Uani   1.00
C33    C     0.14730   0.58280   0.34770   0.02487  Uani   1.00
H34    H     0.14723   0.51366   0.35137   0.03000  Uiso   1.00
C35    C     0.14783   0.90270   0.33320   0.05033  Uani   1.00
C36    C     0.20569   0.58380   0.41520   0.02807  Uani   1.00
S37    S     0.45548   0.36924   0.81127   0.04883  Uani   1.00
S38    S     0.45740   0.56768   0.73919   0.06003  Uani   1.00
O39    O     0.38001   0.06000   0.80290   0.06480  Uani   1.00
O40    O     0.32688   0.05160   0.86140   0.07580  Uani   1.00
O41    O     0.27008   0.36570   0.94749   0.03380  Uani   1.00
O42    O     0.29339   0.51170   0.91803   0.03773  Uani   1.00
O43    O     0.30385   0.46780   0.58140   0.04137  Uani   1.00
O44    O     0.28104   0.61660   0.57010   0.03913  Uani   1.00
O45    O     0.33287   0.90070   0.70550   0.10100  Uani   1.00
O46    O     0.37967   0.87830   0.77920   0.05713  Uani   1.00
H47    H     0.37716   0.93825   0.78638   0.08600  Uiso   1.00
C48    C     0.48196   0.46660   0.77570   0.04333  Uani   1.00
C49    C     0.41384   0.42510   0.78970   0.03243  Uani   1.00
C50    C     0.41466   0.51620   0.75740   0.03220  Uani   1.00
C51    C     0.38481   0.57670   0.72930   0.02703  Uani   1.00
C52    C     0.35829   0.53760   0.68040   0.03220  Uani   1.00
H53    H     0.35865   0.47022   0.66809   0.03800  Uiso   1.00
C54    C     0.33225   0.59770   0.65120   0.03050  Uani   1.00
C55    C     0.33120   0.69900   0.66810   0.03700  Uani   1.00
H56    H     0.31321   0.73928   0.64806   0.04400  Uiso   1.00
C57    C     0.35703   0.73920   0.71490   0.03967  Uani   1.00
C58    C     0.38338   0.67790   0.74460   0.03437  Uani   1.00
H59    H     0.40074   0.70557   0.77593   0.04100  Uiso   1.00
C60    C     0.30421   0.55910   0.59820   0.03167  Uani   1.00
C61    C     0.35582   0.84800   0.73280   0.05200  Uani   1.00
C62    C     0.38187   0.36860   0.81460   0.02870  Uani   1.00
C63    C     0.38133   0.26530   0.80980   0.03700  Uani   1.00
H64    H     0.40076   0.23195   0.78849   0.04500  Uiso   1.00
C65    C     0.35204   0.21120   0.83650   0.03633  Uani   1.00
C66    C     0.32337   0.26050   0.86980   0.03633  Uani   1.00
H67    H     0.30392   0.22447   0.88847   0.04400  Uiso   1.00
C68    C     0.32377   0.36410   0.87520   0.02833  Uani   1.00
C69    C     0.35270   0.41720   0.84770   0.02487  Uani   1.00
H70    H     0.35277   0.48634   0.85137   0.03000  Uiso   1.00
C71    C     0.35217   0.09730   0.83320   0.05033  Uani   1.00
C72    C     0.29431   0.41620   0.91520   0.02807  Uani   1.00
S73    S     0.45548   0.63076   0.18873   0.04883  Uani   1.00
S74    S     0.45740   0.43232   0.26081   0.06003  Uani   1.00
O75    O     0.38001   0.94000   0.19710   0.06480  Uani   1.00
O76    O     0.32688   0.94840   0.13860   0.07580  Uani   1.00
O77    O     0.27008   0.63430   0.05251   0.03380  Uani   1.00
O78    O     0.29339   0.48830   0.08197   0.03773  Uani   1.00
O79    O     0.30385   0.53220   0.41860   0.04137  Uani   1.00
O80    O     0.28104   0.38340   0.42990   0.03913  Uani   1.00
O81    O     0.33287   0.09930   0.29450   0.10100  Uani   1.00
O82    O     0.37967   0.12170   0.22080   0.05713  Uani   1.00
H83    H     0.37716   0.06175   0.21362   0.08600  Uiso   1.00
C84    C     0.48196   0.53340   0.22430   0.04333  Uani   1.00
C85    C     0.41384   0.57490   0.21030   0.03243  Uani   1.00
C86    C     0.41466   0.48380   0.24260   0.03220  Uani   1.00
C87    C     0.38481   0.42330   0.27070   0.02703  Uani   1.00
C88    C     0.35829   0.46240   0.31960   0.03220  Uani   1.00
H89    H     0.35865   0.52978   0.33191   0.03800  Uiso   1.00
C90    C     0.33225   0.40230   0.34880   0.03050  Uani   1.00
C91    C     0.33120   0.30100   0.33190   0.03700  Uani   1.00
H92    H     0.31321   0.26072   0.35194   0.04400  Uiso   1.00
C93    C     0.35703   0.26080   0.28510   0.03967  Uani   1.00
C94    C     0.38338   0.32210   0.25540   0.03437  Uani   1.00
H95    H     0.40074   0.29443   0.22407   0.04100  Uiso   1.00
C96    C     0.30421   0.44090   0.40180   0.03167  Uani   1.00
C97    C     0.35582   0.15200   0.26720   0.05200  Uani   1.00
C98    C     0.38187   0.63140   0.18540   0.02870  Uani   1.00
C99    C     0.38133   0.73470   0.19020   0.03700  Uani   1.00
H100   H     0.40076   0.76805   0.21151   0.04500  Uiso   1.00
C101   C     0.35204   0.78880   0.16350   0.03633  Uani   1.00
C102   C     0.32337   0.73950   0.13020   0.03633  Uani   1.00
H103   H     0.30392   0.77553   0.11153   0.04400  Uiso   1.00
C104   C     0.32377   0.63590   0.12480   0.02833  Uani   1.00
C105   C     0.35270   0.58280   0.15230   0.02487  Uani   1.00
H106   H     0.35277   0.51366   0.14863   0.03000  Uiso   1.00
C107   C     0.35217   0.90270   0.16680   0.05033  Uani   1.00
C108   C     0.29431   0.58380   0.08480   0.02807  Uani   1.00
S109   S     0.04452   0.36924   0.68873   0.04883  Uani   1.00
S110   S     0.04260   0.56768   0.76081   0.06003  Uani   1.00
O111   O     0.11999   0.06000   0.69710   0.06480  Uani   1.00
O112   O     0.17312   0.05160   0.63860   0.07580  Uani   1.00
O113   O     0.22992   0.36570   0.55251   0.03380  Uani   1.00
O114   O     0.20661   0.51170   0.58197   0.03773  Uani   1.00
O115   O     0.19615   0.46780   0.91860   0.04137  Uani   1.00
O116   O     0.21896   0.61660   0.92990   0.03913  Uani   1.00
O117   O     0.16713   0.90070   0.79450   0.10100  Uani   1.00
O118   O     0.12033   0.87830   0.72080   0.05713  Uani   1.00
H119   H     0.12284   0.93825   0.71362   0.08600  Uiso   1.00
C120   C     0.01804   0.46660   0.72430   0.04333  Uani   1.00
C121   C     0.08616   0.42510   0.71030   0.03243  Uani   1.00
C122   C     0.08534   0.51620   0.74260   0.03220  Uani   1.00
C123   C     0.11519   0.57670   0.77070   0.02703  Uani   1.00
C124   C     0.14171   0.53760   0.81960   0.03220  Uani   1.00
H125   H     0.14135   0.47022   0.83191   0.03800  Uiso   1.00
C126   C     0.16775   0.59770   0.84880   0.03050  Uani   1.00
C127   C     0.16880   0.69900   0.83190   0.03700  Uani   1.00
H128   H     0.18679   0.73928   0.85194   0.04400  Uiso   1.00
C129   C     0.14297   0.73920   0.78510   0.03967  Uani   1.00
C130   C     0.11662   0.67790   0.75540   0.03437  Uani   1.00
H131   H     0.09926   0.70557   0.72407   0.04100  Uiso   1.00
C132   C     0.19579   0.55910   0.90180   0.03167  Uani   1.00
C133   C     0.14418   0.84800   0.76720   0.05200  Uani   1.00
C134   C     0.11813   0.36860   0.68540   0.02870  Uani   1.00
C135   C     0.11867   0.26530   0.69020   0.03700  Uani   1.00
H136   H     0.09924   0.23195   0.71151   0.04500  Uiso   1.00
C137   C     0.14796   0.21120   0.66350   0.03633  Uani   1.00
C138   C     0.17663   0.26050   0.63020   0.03633  Uani   1.00
H139   H     0.19608   0.22447   0.61153   0.04400  Uiso   1.00
C140   C     0.17623   0.36410   0.62480   0.02833  Uani   1.00
C141   C     0.14730   0.41720   0.65230   0.02487  Uani   1.00
H142   H     0.14723   0.48634   0.64863   0.03000  Uiso   1.00
C143   C     0.14783   0.09730   0.66680   0.05033  Uani   1.00
C144   C     0.20569   0.41620   0.58480   0.02807  Uani   1.00
S145   S     0.95548   0.36924   0.68873   0.04883  Uani   1.00
S146   S     0.95740   0.56768   0.76081   0.06003  Uani   1.00
O147   O     0.88001   0.06000   0.69710   0.06480  Uani   1.00
O148   O     0.82688   0.05160   0.63860   0.07580  Uani   1.00
O149   O     0.77008   0.36570   0.55251   0.03380  Uani   1.00
O150   O     0.79339   0.51170   0.58197   0.03773  Uani   1.00
O151   O     0.80385   0.46780   0.91860   0.04137  Uani   1.00
O152   O     0.78104   0.61660   0.92990   0.03913  Uani   1.00
O153   O     0.83287   0.90070   0.79450   0.10100  Uani   1.00
O154   O     0.87967   0.87830   0.72080   0.05713  Uani   1.00
H155   H     0.87716   0.93825   0.71362   0.08600  Uiso   1.00
C156   C     0.98196   0.46660   0.72430   0.04333  Uani   1.00
C157   C     0.91384   0.42510   0.71030   0.03243  Uani   1.00
C158   C     0.91466   0.51620   0.74260   0.03220  Uani   1.00
C159   C     0.88481   0.57670   0.77070   0.02703  Uani   1.00
C160   C     0.85829   0.53760   0.81960   0.03220  Uani   1.00
H161   H     0.85865   0.47022   0.83191   0.03800  Uiso   1.00
C162   C     0.83225   0.59770   0.84880   0.03050  Uani   1.00
C163   C     0.83120   0.69900   0.83190   0.03700  Uani   1.00
H164   H     0.81321   0.73928   0.85194   0.04400  Uiso   1.00
C165   C     0.85703   0.73920   0.78510   0.03967  Uani   1.00
C166   C     0.88338   0.67790   0.75540   0.03437  Uani   1.00
H167   H     0.90074   0.70557   0.72407   0.04100  Uiso   1.00
C168   C     0.80421   0.55910   0.90180   0.03167  Uani   1.00
C169   C     0.85582   0.84800   0.76720   0.05200  Uani   1.00
C170   C     0.88187   0.36860   0.68540   0.02870  Uani   1.00
C171   C     0.88133   0.26530   0.69020   0.03700  Uani   1.00
H172   H     0.90076   0.23195   0.71151   0.04500  Uiso   1.00
C173   C     0.85204   0.21120   0.66350   0.03633  Uani   1.00
C174   C     0.82337   0.26050   0.63020   0.03633  Uani   1.00
H175   H     0.80392   0.22447   0.61153   0.04400  Uiso   1.00
C176   C     0.82377   0.36410   0.62480   0.02833  Uani   1.00
C177   C     0.85270   0.41720   0.65230   0.02487  Uani   1.00
H178   H     0.85277   0.48634   0.64863   0.03000  Uiso   1.00
C179   C     0.85217   0.09730   0.66680   0.05033  Uani   1.00
C180   C     0.79431   0.41620   0.58480   0.02807  Uani   1.00
S181   S     0.54452   0.63076   0.18873   0.04883  Uani   1.00
S182   S     0.54260   0.43232   0.26081   0.06003  Uani   1.00
O183   O     0.61999   0.94000   0.19710   0.06480  Uani   1.00
O184   O     0.67312   0.94840   0.13860   0.07580  Uani   1.00
O185   O     0.72992   0.63430   0.05251   0.03380  Uani   1.00
O186   O     0.70661   0.48830   0.08197   0.03773  Uani   1.00
O187   O     0.69615   0.53220   0.41860   0.04137  Uani   1.00
O188   O     0.71896   0.38340   0.42990   0.03913  Uani   1.00
O189   O     0.66713   0.09930   0.29450   0.10100  Uani   1.00
O190   O     0.62033   0.12170   0.22080   0.05713  Uani   1.00
H191   H     0.62284   0.06175   0.21362   0.08600  Uiso   1.00
C192   C     0.51804   0.53340   0.22430   0.04333  Uani   1.00
C193   C     0.58616   0.57490   0.21030   0.03243  Uani   1.00
C194   C     0.58534   0.48380   0.24260   0.03220  Uani   1.00
C195   C     0.61519   0.42330   0.27070   0.02703  Uani   1.00
C196   C     0.64171   0.46240   0.31960   0.03220  Uani   1.00
H197   H     0.64135   0.52978   0.33191   0.03800  Uiso   1.00
C198   C     0.66775   0.40230   0.34880   0.03050  Uani   1.00
C199   C     0.66880   0.30100   0.33190   0.03700  Uani   1.00
H200   H     0.68679   0.26072   0.35194   0.04400  Uiso   1.00
C201   C     0.64297   0.26080   0.28510   0.03967  Uani   1.00
C202   C     0.61662   0.32210   0.25540   0.03437  Uani   1.00
H203   H     0.59926   0.29443   0.22407   0.04100  Uiso   1.00
C204   C     0.69579   0.44090   0.40180   0.03167  Uani   1.00
C205   C     0.64418   0.15200   0.26720   0.05200  Uani   1.00
C206   C     0.61813   0.63140   0.18540   0.02870  Uani   1.00
C207   C     0.61867   0.73470   0.19020   0.03700  Uani   1.00
H208   H     0.59924   0.76805   0.21151   0.04500  Uiso   1.00
C209   C     0.64796   0.78880   0.16350   0.03633  Uani   1.00
C210   C     0.67663   0.73950   0.13020   0.03633  Uani   1.00
H211   H     0.69608   0.77553   0.11153   0.04400  Uiso   1.00
C212   C     0.67623   0.63590   0.12480   0.02833  Uani   1.00
C213   C     0.64730   0.58280   0.15230   0.02487  Uani   1.00
H214   H     0.64723   0.51366   0.14863   0.03000  Uiso   1.00
C215   C     0.64783   0.90270   0.16680   0.05033  Uani   1.00
C216   C     0.70569   0.58380   0.08480   0.02807  Uani   1.00
S217   S     0.54452   0.36924   0.81127   0.04883  Uani   1.00
S218   S     0.54260   0.56768   0.73919   0.06003  Uani   1.00
O219   O     0.61999   0.06000   0.80290   0.06480  Uani   1.00
O220   O     0.67312   0.05160   0.86140   0.07580  Uani   1.00
O221   O     0.72992   0.36570   0.94749   0.03380  Uani   1.00
O222   O     0.70661   0.51170   0.91803   0.03773  Uani   1.00
O223   O     0.69615   0.46780   0.58140   0.04137  Uani   1.00
O224   O     0.71896   0.61660   0.57010   0.03913  Uani   1.00
O225   O     0.66713   0.90070   0.70550   0.10100  Uani   1.00
O226   O     0.62033   0.87830   0.77920   0.05713  Uani   1.00
H227   H     0.62284   0.93825   0.78638   0.08600  Uiso   1.00
C228   C     0.51804   0.46660   0.77570   0.04333  Uani   1.00
C229   C     0.58616   0.42510   0.78970   0.03243  Uani   1.00
C230   C     0.58534   0.51620   0.75740   0.03220  Uani   1.00
C231   C     0.61519   0.57670   0.72930   0.02703  Uani   1.00
C232   C     0.64171   0.53760   0.68040   0.03220  Uani   1.00
H233   H     0.64135   0.47022   0.66809   0.03800  Uiso   1.00
C234   C     0.66775   0.59770   0.65120   0.03050  Uani   1.00
C235   C     0.66880   0.69900   0.66810   0.03700  Uani   1.00
H236   H     0.68679   0.73928   0.64806   0.04400  Uiso   1.00
C237   C     0.64297   0.73920   0.71490   0.03967  Uani   1.00
C238   C     0.61662   0.67790   0.74460   0.03437  Uani   1.00
H239   H     0.59926   0.70557   0.77593   0.04100  Uiso   1.00
C240   C     0.69579   0.55910   0.59820   0.03167  Uani   1.00
C241   C     0.64418   0.84800   0.73280   0.05200  Uani   1.00
C242   C     0.61813   0.36860   0.81460   0.02870  Uani   1.00
C243   C     0.61867   0.26530   0.80980   0.03700  Uani   1.00
H244   H     0.59924   0.23195   0.78849   0.04500  Uiso   1.00
C245   C     0.64796   0.21120   0.83650   0.03633  Uani   1.00
C246   C     0.67663   0.26050   0.86980   0.03633  Uani   1.00
H247   H     0.69608   0.22447   0.88847   0.04400  Uiso   1.00
C248   C     0.67623   0.36410   0.87520   0.02833  Uani   1.00
C249   C     0.64730   0.41720   0.84770   0.02487  Uani   1.00
H250   H     0.64723   0.48634   0.85137   0.03000  Uiso   1.00
C251   C     0.64783   0.09730   0.83320   0.05033  Uani   1.00
C252   C     0.70569   0.41620   0.91520   0.02807  Uani   1.00
S253   S     0.95548   0.63076   0.31127   0.04883  Uani   1.00
S254   S     0.95740   0.43232   0.23919   0.06003  Uani   1.00
O255   O     0.88001   0.94000   0.30290   0.06480  Uani   1.00
O256   O     0.82688   0.94840   0.36140   0.07580  Uani   1.00
O257   O     0.77008   0.63430   0.44749   0.03380  Uani   1.00
O258   O     0.79339   0.48830   0.41803   0.03773  Uani   1.00
O259   O     0.80385   0.53220   0.08140   0.04137  Uani   1.00
O260   O     0.78104   0.38340   0.07010   0.03913  Uani   1.00
O261   O     0.83287   0.09930   0.20550   0.10100  Uani   1.00
O262   O     0.87967   0.12170   0.27920   0.05713  Uani   1.00
H263   H     0.87716   0.06175   0.28638   0.08600  Uiso   1.00
C264   C     0.98196   0.53340   0.27570   0.04333  Uani   1.00
C265   C     0.91384   0.57490   0.28970   0.03243  Uani   1.00
C266   C     0.91466   0.48380   0.25740   0.03220  Uani   1.00
C267   C     0.88481   0.42330   0.22930   0.02703  Uani   1.00
C268   C     0.85829   0.46240   0.18040   0.03220  Uani   1.00
H269   H     0.85865   0.52978   0.16809   0.03800  Uiso   1.00
C270   C     0.83225   0.40230   0.15120   0.03050  Uani   1.00
C271   C     0.83120   0.30100   0.16810   0.03700  Uani   1.00
H272   H     0.81321   0.26072   0.14806   0.04400  Uiso   1.00
C273   C     0.85703   0.26080   0.21490   0.03967  Uani   1.00
C274   C     0.88338   0.32210   0.24460   0.03437  Uani   1.00
H275   H     0.90074   0.29443   0.27593   0.04100  Uiso   1.00
C276   C     0.80421   0.44090   0.09820   0.03167  Uani   1.00
C277   C     0.85582   0.15200   0.23280   0.05200  Uani   1.00
C278   C     0.88187   0.63140   0.31460   0.02870  Uani   1.00
C279   C     0.88133   0.73470   0.30980   0.03700  Uani   1.00
H280   H     0.90076   0.76805   0.28849   0.04500  Uiso   1.00
C281   C     0.85204   0.78880   0.33650   0.03633  Uani   1.00
C282   C     0.82337   0.73950   0.36980   0.03633  Uani   1.00
H283   H     0.80392   0.77553   0.38847   0.04400  Uiso   1.00
C284   C     0.82377   0.63590   0.37520   0.02833  Uani   1.00
C285   C     0.85270   0.58280   0.34770   0.02487  Uani   1.00
H286   H     0.85277   0.51366   0.35137   0.03000  Uiso   1.00
C287   C     0.85217   0.90270   0.33320   0.05033  Uani   1.00
C288   C     0.79431   0.58380   0.41520   0.02807  Uani   1.00
In289  In    0.24446   0.50000   0.00000   0.03113  Uani   1.00
In290  In    0.25554   0.50000   0.50000   0.03113  Uani   1.00
In291  In    0.75554   0.50000   0.00000   0.03113  Uani   1.00
In292  In    0.74446   0.50000   0.50000   0.03113  Uani   1.00
loop_
_atom_site_aniso_label
_atom_site_aniso_U_11
_atom_site_aniso_U_22
_atom_site_aniso_U_33
_atom_site_aniso_U_12
_atom_site_aniso_U_13
_atom_site_aniso_U_23
S1        0.02070   0.03190   0.09390   0.00180  -0.00030  -0.01980
S2        0.02140   0.03770   0.12100  -0.00150   0.00140  -0.03260
O3        0.05300   0.02640   0.11500   0.00150  -0.02200   0.01400
O4        0.06700   0.02440   0.13600  -0.01570  -0.04300   0.01000
O5        0.02360   0.03490   0.04290   0.00070  -0.00360   0.00920
O6        0.03920   0.02900   0.04500   0.01090  -0.00950  -0.00120
O7        0.04700   0.03410   0.04300  -0.01160   0.01040  -0.00710
O8        0.02500   0.05100   0.04140  -0.00090   0.00700   0.01010
O9        0.10600   0.04500   0.15200   0.01800   0.05700   0.00500
O10       0.06400   0.02140   0.08600   0.00400   0.01700   0.01570
C12       0.02700   0.03100   0.07200   0.00280  -0.00400  -0.01300
C13       0.02120   0.02310   0.05300   0.00200  -0.00320  -0.00300
C14       0.02060   0.02600   0.05000  -0.00170   0.00390  -0.00340
C15       0.02200   0.02510   0.03400  -0.00050   0.00320  -0.00130
C16       0.02390   0.02670   0.04600  -0.00450   0.00280   0.00240
C18       0.02150   0.03800   0.03200  -0.00690   0.00050   0.00240
C19       0.02600   0.02900   0.05600   0.00420   0.00700  -0.00800
C21       0.03100   0.02300   0.06500   0.00040   0.00600  -0.00200
C22       0.02110   0.02700   0.05500  -0.00340   0.00450  -0.00150
C24       0.02800   0.04000   0.02700  -0.00740   0.00090   0.00770
C25       0.04900   0.02200   0.08500   0.00800   0.00800  -0.00200
C26       0.02540   0.02170   0.03900   0.00230  -0.00030  -0.00100
C27       0.02700   0.02400   0.06000   0.00120  -0.01200   0.01100
C29       0.03500   0.02500   0.04900  -0.00410  -0.00700   0.00950
C30       0.02300   0.03100   0.05500  -0.00410  -0.00740   0.00500
C32       0.02210   0.02490   0.03800   0.00370  -0.00330   0.00230
C33       0.02660   0.01800   0.03000   0.00290  -0.00110   0.00060
C35       0.04900   0.02600   0.07600  -0.00700  -0.01100   0.01300
C36       0.02420   0.03400   0.02600   0.00530  -0.00060   0.01420
S37       0.02070   0.03190   0.09390   0.00180   0.00030   0.01980
S38       0.02140   0.03770   0.12100  -0.00150  -0.00140   0.03260
O39       0.05300   0.02640   0.11500   0.00150   0.02200  -0.01400
O40       0.06700   0.02440   0.13600  -0.01570   0.04300  -0.01000
O41       0.02360   0.03490   0.04290   0.00070   0.00360  -0.00920
O42       0.03920   0.02900   0.04500   0.01090   0.00950   0.00120
O43       0.04700   0.03410   0.04300  -0.01160  -0.01040   0.00710
O44       0.02500   0.05100   0.04140  -0.00090  -0.00700  -0.01010
O45       0.10600   0.04500   0.15200   0.01800  -0.05700  -0.00500
O46       0.06400   0.02140   0.08600   0.00400  -0.01700  -0.01570
C48       0.02700   0.03100   0.07200   0.00280   0.00400   0.01300
C49       0.02120   0.02310   0.05300   0.00200   0.00320   0.00300
C50       0.02060   0.02600   0.05000  -0.00170  -0.00390   0.00340
C51       0.02200   0.02510   0.03400  -0.00050  -0.00320   0.00130
C52       0.02390   0.02670   0.04600  -0.00450  -0.00280  -0.00240
C54       0.02150   0.03800   0.03200  -0.00690  -0.00050  -0.00240
C55       0.02600   0.02900   0.05600   0.00420  -0.00700   0.00800
C57       0.03100   0.02300   0.06500   0.00040  -0.00600   0.00200
C58       0.02110   0.02700   0.05500  -0.00340  -0.00450   0.00150
C60       0.02800   0.04000   0.02700  -0.00740  -0.00090  -0.00770
C61       0.04900   0.02200   0.08500   0.00800  -0.00800   0.00200
C62       0.02540   0.02170   0.03900   0.00230   0.00030   0.00100
C63       0.02700   0.02400   0.06000   0.00120   0.01200  -0.01100
C65       0.03500   0.02500   0.04900  -0.00410   0.00700  -0.00950
C66       0.02300   0.03100   0.05500  -0.00410   0.00740  -0.00500
C68       0.02210   0.02490   0.03800   0.00370   0.00330  -0.00230
C69       0.02660   0.01800   0.03000   0.00290   0.00110  -0.00060
C71       0.04900   0.02600   0.07600  -0.00700   0.01100  -0.01300
C72       0.02420   0.03400   0.02600   0.00530   0.00060  -0.01420
S73       0.02070   0.03190   0.09390  -0.00180  -0.00030   0.01980
S74       0.02140   0.03770   0.12100   0.00150   0.00140   0.03260
O75       0.05300   0.02640   0.11500  -0.00150  -0.02200  -0.01400
O76       0.06700   0.02440   0.13600   0.01570  -0.04300  -0.01000
O77       0.02360   0.03490   0.04290  -0.00070  -0.00360  -0.00920
O78       0.03920   0.02900   0.04500  -0.01090  -0.00950   0.00120
O79       0.04700   0.03410   0.04300   0.01160   0.01040   0.00710
O80       0.02500   0.05100   0.04140   0.00090   0.00700  -0.01010
O81       0.10600   0.04500   0.15200  -0.01800   0.05700  -0.00500
O82       0.06400   0.02140   0.08600  -0.00400   0.01700  -0.01570
C84       0.02700   0.03100   0.07200  -0.00280  -0.00400   0.01300
C85       0.02120   0.02310   0.05300  -0.00200  -0.00320   0.00300
C86       0.02060   0.02600   0.05000   0.00170   0.00390   0.00340
C87       0.02200   0.02510   0.03400   0.00050   0.00320   0.00130
C88       0.02390   0.02670   0.04600   0.00450   0.00280  -0.00240
C90       0.02150   0.03800   0.03200   0.00690   0.00050  -0.00240
C91       0.02600   0.02900   0.05600  -0.00420   0.00700   0.00800
C93       0.03100   0.02300   0.06500  -0.00040   0.00600   0.00200
C94       0.02110   0.02700   0.05500   0.00340   0.00450   0.00150
C96       0.02800   0.04000   0.02700   0.00740   0.00090  -0.00770
C97       0.04900   0.02200   0.08500  -0.00800   0.00800   0.00200
C98       0.02540   0.02170   0.03900  -0.00230  -0.00030   0.00100
C99       0.02700   0.02400   0.06000  -0.00120  -0.01200  -0.01100
C101      0.03500   0.02500   0.04900   0.00410  -0.00700  -0.00950
C102      0.02300   0.03100   0.05500   0.00410  -0.00740  -0.00500
C104      0.02210   0.02490   0.03800  -0.00370  -0.00330  -0.00230
C105      0.02660   0.01800   0.03000  -0.00290  -0.00110  -0.00060
C107      0.04900   0.02600   0.07600   0.00700  -0.01100  -0.01300
C108      0.02420   0.03400   0.02600  -0.00530  -0.00060  -0.01420
S109      0.02070   0.03190   0.09390  -0.00180   0.00030  -0.01980
S110      0.02140   0.03770   0.12100   0.00150  -0.00140  -0.03260
O111      0.05300   0.02640   0.11500  -0.00150   0.02200   0.01400
O112      0.06700   0.02440   0.13600   0.01570   0.04300   0.01000
O113      0.02360   0.03490   0.04290  -0.00070   0.00360   0.00920
O114      0.03920   0.02900   0.04500  -0.01090   0.00950  -0.00120
O115      0.04700   0.03410   0.04300   0.01160  -0.01040  -0.00710
O116      0.02500   0.05100   0.04140   0.00090  -0.00700   0.01010
O117      0.10600   0.04500   0.15200  -0.01800  -0.05700   0.00500
O118      0.06400   0.02140   0.08600  -0.00400  -0.01700   0.01570
C120      0.02700   0.03100   0.07200  -0.00280   0.00400  -0.01300
C121      0.02120   0.02310   0.05300  -0.00200   0.00320  -0.00300
C122      0.02060   0.02600   0.05000   0.00170  -0.00390  -0.00340
C123      0.02200   0.02510   0.03400   0.00050  -0.00320  -0.00130
C124      0.02390   0.02670   0.04600   0.00450  -0.00280   0.00240
C126      0.02150   0.03800   0.03200   0.00690  -0.00050   0.00240
C127      0.02600   0.02900   0.05600  -0.00420  -0.00700  -0.00800
C129      0.03100   0.02300   0.06500  -0.00040  -0.00600  -0.00200
C130      0.02110   0.02700   0.05500   0.00340  -0.00450  -0.00150
C132      0.02800   0.04000   0.02700   0.00740  -0.00090   0.00770
C133      0.04900   0.02200   0.08500  -0.00800  -0.00800  -0.00200
C134      0.02540   0.02170   0.03900  -0.00230   0.00030  -0.00100
C135      0.02700   0.02400   0.06000  -0.00120   0.01200   0.01100
C137      0.03500   0.02500   0.04900   0.00410   0.00700   0.00950
C138      0.02300   0.03100   0.05500   0.00410   0.00740   0.00500
C140      0.02210   0.02490   0.03800  -0.00370   0.00330   0.00230
C141      0.02660   0.01800   0.03000  -0.00290   0.00110   0.00060
C143      0.04900   0.02600   0.07600   0.00700   0.01100   0.01300
C144      0.02420   0.03400   0.02600  -0.00530   0.00060   0.01420
S145      0.02070   0.03190   0.09390   0.00180  -0.00030  -0.01980
S146      0.02140   0.03770   0.12100  -0.00150   0.00140  -0.03260
O147      0.05300   0.02640   0.11500   0.00150  -0.02200   0.01400
O148      0.06700   0.02440   0.13600  -0.01570  -0.04300   0.01000
O149      0.02360   0.03490   0.04290   0.00070  -0.00360   0.00920
O150      0.03920   0.02900   0.04500   0.01090  -0.00950  -0.00120
O151      0.04700   0.03410   0.04300  -0.01160   0.01040  -0.00710
O152      0.02500   0.05100   0.04140  -0.00090   0.00700   0.01010
O153      0.10600   0.04500   0.15200   0.01800   0.05700   0.00500
O154      0.06400   0.02140   0.08600   0.00400   0.01700   0.01570
C156      0.02700   0.03100   0.07200   0.00280  -0.00400  -0.01300
C157      0.02120   0.02310   0.05300   0.00200  -0.00320  -0.00300
C158      0.02060   0.02600   0.05000  -0.00170   0.00390  -0.00340
C159      0.02200   0.02510   0.03400  -0.00050   0.00320  -0.00130
C160      0.02390   0.02670   0.04600  -0.00450   0.00280   0.00240
C162      0.02150   0.03800   0.03200  -0.00690   0.00050   0.00240
C163      0.02600   0.02900   0.05600   0.00420   0.00700  -0.00800
C165      0.03100   0.02300   0.06500   0.00040   0.00600  -0.00200
C166      0.02110   0.02700   0.05500  -0.00340   0.00450  -0.00150
C168      0.02800   0.04000   0.02700  -0.00740   0.00090   0.00770
C169      0.04900   0.02200   0.08500   0.00800   0.00800  -0.00200
C170      0.02540   0.02170   0.03900   0.00230  -0.00030  -0.00100
C171      0.02700   0.02400   0.06000   0.00120  -0.01200   0.01100
C173      0.03500   0.02500   0.04900  -0.00410  -0.00700   0.00950
C174      0.02300   0.03100   0.05500  -0.00410  -0.00740   0.00500
C176      0.02210   0.02490   0.03800   0.00370  -0.00330   0.00230
C177      0.02660   0.01800   0.03000   0.00290  -0.00110   0.00060
C179      0.04900   0.02600   0.07600  -0.00700  -0.01100   0.01300
C180      0.02420   0.03400   0.02600   0.00530  -0.00060   0.01420
S181      0.02070   0.03190   0.09390   0.00180   0.00030   0.01980
S182      0.02140   0.03770   0.12100  -0.00150  -0.00140   0.03260
O183      0.05300   0.02640   0.11500   0.00150   0.02200  -0.01400
O184      0.06700   0.02440   0.13600  -0.01570   0.04300  -0.01000
O185      0.02360   0.03490   0.04290   0.00070   0.00360  -0.00920
O186      0.03920   0.02900   0.04500   0.01090   0.00950   0.00120
O187      0.04700   0.03410   0.04300  -0.01160  -0.01040   0.00710
O188      0.02500   0.05100   0.04140  -0.00090  -0.00700  -0.01010
O189      0.10600   0.04500   0.15200   0.01800  -0.05700  -0.00500
O190      0.06400   0.02140   0.08600   0.00400  -0.01700  -0.01570
C192      0.02700   0.03100   0.07200   0.00280   0.00400   0.01300
C193      0.02120   0.02310   0.05300   0.00200   0.00320   0.00300
C194      0.02060   0.02600   0.05000  -0.00170  -0.00390   0.00340
C195      0.02200   0.02510   0.03400  -0.00050  -0.00320   0.00130
C196      0.02390   0.02670   0.04600  -0.00450  -0.00280  -0.00240
C198      0.02150   0.03800   0.03200  -0.00690  -0.00050  -0.00240
C199      0.02600   0.02900   0.05600   0.00420  -0.00700   0.00800
C201      0.03100   0.02300   0.06500   0.00040  -0.00600   0.00200
C202      0.02110   0.02700   0.05500  -0.00340  -0.00450   0.00150
C204      0.02800   0.04000   0.02700  -0.00740  -0.00090  -0.00770
C205      0.04900   0.02200   0.08500   0.00800  -0.00800   0.00200
C206      0.02540   0.02170   0.03900   0.00230   0.00030   0.00100
C207      0.02700   0.02400   0.06000   0.00120   0.01200  -0.01100
C209      0.03500   0.02500   0.04900  -0.00410   0.00700  -0.00950
C210      0.02300   0.03100   0.05500  -0.00410   0.00740  -0.00500
C212      0.02210   0.02490   0.03800   0.00370   0.00330  -0.00230
C213      0.02660   0.01800   0.03000   0.00290   0.00110  -0.00060
C215      0.04900   0.02600   0.07600  -0.00700   0.01100  -0.01300
C216      0.02420   0.03400   0.02600   0.00530   0.00060  -0.01420
S217      0.02070   0.03190   0.09390  -0.00180  -0.00030   0.01980
S218      0.02140   0.03770   0.12100   0.00150   0.00140   0.03260
O219      0.05300   0.02640   0.11500  -0.00150  -0.02200  -0.01400
O220      0.06700   0.02440   0.13600   0.01570  -0.04300  -0.01000
O221      0.02360   0.03490   0.04290  -0.00070  -0.00360  -0.00920
O222      0.03920   0.02900   0.04500  -0.01090  -0.00950   0.00120
O223      0.04700   0.03410   0.04300   0.01160   0.01040   0.00710
O224      0.02500   0.05100   0.04140   0.00090   0.00700  -0.01010
O225      0.10600   0.04500   0.15200  -0.01800   0.05700  -0.00500
O226      0.06400   0.02140   0.08600  -0.00400   0.01700  -0.01570
C228      0.02700   0.03100   0.07200  -0.00280  -0.00400   0.01300
C229      0.02120   0.02310   0.05300  -0.00200  -0.00320   0.00300
C230      0.02060   0.02600   0.05000   0.00170   0.00390   0.00340
C231      0.02200   0.02510   0.03400   0.00050   0.00320   0.00130
C232      0.02390   0.02670   0.04600   0.00450   0.00280  -0.00240
C234      0.02150   0.03800   0.03200   0.00690   0.00050  -0.00240
C235      0.02600   0.02900   0.05600  -0.00420   0.00700   0.00800
C237      0.03100   0.02300   0.06500  -0.00040   0.00600   0.00200
C238      0.02110   0.02700   0.05500   0.00340   0.00450   0.00150
C240      0.02800   0.04000   0.02700   0.00740   0.00090  -0.00770
C241      0.04900   0.02200   0.08500  -0.00800   0.00800   0.00200
C242      0.02540   0.02170   0.03900  -0.00230  -0.00030   0.00100
C243      0.02700   0.02400   0.06000  -0.00120  -0.01200  -0.01100
C245      0.03500   0.02500   0.04900   0.00410  -0.00700  -0.00950
C246      0.02300   0.03100   0.05500   0.00410  -0.00740  -0.00500
C248      0.02210   0.02490   0.03800  -0.00370  -0.00330  -0.00230
C249      0.02660   0.01800   0.03000  -0.00290  -0.00110  -0.00060
C251      0.04900   0.02600   0.07600   0.00700  -0.01100  -0.01300
C252      0.02420   0.03400   0.02600  -0.00530  -0.00060  -0.01420
S253      0.02070   0.03190   0.09390  -0.00180   0.00030  -0.01980
S254      0.02140   0.03770   0.12100   0.00150  -0.00140  -0.03260
O255      0.05300   0.02640   0.11500  -0.00150   0.02200   0.01400
O256      0.06700   0.02440   0.13600   0.01570   0.04300   0.01000
O257      0.02360   0.03490   0.04290  -0.00070   0.00360   0.00920
O258      0.03920   0.02900   0.04500  -0.01090   0.00950  -0.00120
O259      0.04700   0.03410   0.04300   0.01160  -0.01040  -0.00710
O260      0.02500   0.05100   0.04140   0.00090  -0.00700   0.01010
O261      0.10600   0.04500   0.15200  -0.01800  -0.05700   0.00500
O262      0.06400   0.02140   0.08600  -0.00400  -0.01700   0.01570
C264      0.02700   0.03100   0.07200  -0.00280   0.00400  -0.01300
C265      0.02120   0.02310   0.05300  -0.00200   0.00320  -0.00300
C266      0.02060   0.02600   0.05000   0.00170  -0.00390  -0.00340
C267      0.02200   0.02510   0.03400   0.00050  -0.00320  -0.00130
C268      0.02390   0.02670   0.04600   0.00450  -0.00280   0.00240
C270      0.02150   0.03800   0.03200   0.00690  -0.00050   0.00240
C271      0.02600   0.02900   0.05600  -0.00420  -0.00700  -0.00800
C273      0.03100   0.02300   0.06500  -0.00040  -0.00600  -0.00200
C274      0.02110   0.02700   0.05500   0.00340  -0.00450  -0.00150
C276      0.02800   0.04000   0.02700   0.00740  -0.00090   0.00770
C277      0.04900   0.02200   0.08500  -0.00800  -0.00800  -0.00200
C278      0.02540   0.02170   0.03900  -0.00230   0.00030  -0.00100
C279      0.02700   0.02400   0.06000  -0.00120   0.01200   0.01100
C281      0.03500   0.02500   0.04900   0.00410   0.00700   0.00950
C282      0.02300   0.03100   0.05500   0.00410   0.00740   0.00500
C284      0.02210   0.02490   0.03800  -0.00370   0.00330   0.00230
C285      0.02660   0.01800   0.03000  -0.00290   0.00110   0.00060
C287      0.04900   0.02600   0.07600   0.00700   0.01100   0.01300
C288      0.02420   0.03400   0.02600  -0.00530   0.00060   0.01420
In289     0.02240   0.02420   0.04680   0.00000   0.00000  -0.00290
In290     0.02240   0.02420   0.04680   0.00000   0.00000   0.00290
In291     0.02240   0.02420   0.04680   0.00000   0.00000  -0.00290
In292     0.02240   0.02420   0.04680   0.00000   0.00000   0.00290
loop_
_geom_bond_atom_site_label_1
_geom_bond_atom_site_label_2
_geom_bond_distance
_geom_bond_site_symmetry_2
_ccdc_geom_bond_type
S1     C12     1.753   .     S
S1     C13     1.760   .     S
S2     C12     1.759   .     S
S2     C14     1.761   .     S
O3     C35     1.269   .     S
O4     C35     1.229   .     S
O5     C36     1.264   .     S
O5     In290   2.241   .     S
O6     C36     1.282   .     S
O6     In290   2.336   .     S
O7     In289   2.346   .     S
O7     C24     1.261   .     S
O8     In289   2.214   .     S
O8     C24     1.259   .     S
O9     C25     1.209   .     S
O10    H11     0.819   .     S
O10    C25     1.277   .     S
C12    C264    1.340   1_455 S
C13    C26     1.476   .     S
C13    C14     1.351   .     S
C14    C15     1.462   .     S
C15    C16     1.415   .     S
C15    C22     1.385   .     S
C16    H17     0.930   .     S
C16    C18     1.362   .     S
C18    C19     1.392   .     S
C18    C24     1.498   .     S
C19    H20     0.930   .     S
C19    C21     1.380   .     S
C21    C22     1.383   .     S
C21    C25     1.494   .     S
C22    H23     0.930   .     S
C26    C27     1.388   .     S
C26    C33     1.395   .     S
C27    H28     0.930   .     S
C27    C29     1.391   .     S
C29    C30     1.386   .     S
C29    C35     1.529   .     S
C30    H31     0.930   .     S
C30    C32     1.393   .     S
C32    C36     1.481   .     S
C32    C33     1.379   .     S
C33    H34     0.930   .     S
S37    C48     1.753   .     S
S37    C49     1.760   .     S
S38    C48     1.759   .     S
S38    C50     1.761   .     S
O39    C71     1.269   .     S
O40    C71     1.229   .     S
O41    C72     1.264   .     S
O41    In289   2.241   1_556 S
O42    C72     1.282   .     S
O42    In289   2.336   1_556 S
O43    In290   2.346   .     S
O43    C60     1.261   .     S
O44    In290   2.214   .     S
O44    C60     1.259   .     S
O45    C61     1.209   .     S
O46    H47     0.819   .     S
O46    C61     1.277   .     S
C48    C228    1.340   .     S
C49    C62     1.476   .     S
C49    C50     1.351   .     S
C50    C51     1.462   .     S
C51    C52     1.415   .     S
C51    C58     1.385   .     S
C52    H53     0.930   .     S
C52    C54     1.362   .     S
C54    C55     1.392   .     S
C54    C60     1.498   .     S
C55    H56     0.930   .     S
C55    C57     1.380   .     S
C57    C58     1.383   .     S
C57    C61     1.494   .     S
C58    H59     0.930   .     S
C62    C63     1.388   .     S
C62    C69     1.395   .     S
C63    H64     0.930   .     S
C63    C65     1.391   .     S
C65    C66     1.386   .     S
C65    C71     1.529   .     S
C66    H67     0.930   .     S
C66    C68     1.393   .     S
C68    C72     1.481   .     S
C68    C69     1.379   .     S
C69    H70     0.930   .     S
S73    C84     1.753   .     S
S73    C85     1.760   .     S
S74    C84     1.759   .     S
S74    C86     1.761   .     S
O75    C107    1.269   .     S
O76    C107    1.229   .     S
O77    C108    1.264   .     S
O77    In289   2.241   .     S
O78    C108    1.282   .     S
O78    In289   2.336   .     S
O79    In290   2.346   .     S
O79    C96     1.261   .     S
O80    In290   2.214   .     S
O80    C96     1.259   .     S
O81    C97     1.209   .     S
O82    H83     0.819   .     S
O82    C97     1.277   .     S
C84    C192    1.340   .     S
C85    C98     1.476   .     S
C85    C86     1.351   .     S
C86    C87     1.462   .     S
C87    C88     1.415   .     S
C87    C94     1.385   .     S
C88    H89     0.930   .     S
C88    C90     1.362   .     S
C90    C91     1.392   .     S
C90    C96     1.498   .     S
C91    H92     0.930   .     S
C91    C93     1.380   .     S
C93    C94     1.383   .     S
C93    C97     1.494   .     S
C94    H95     0.930   .     S
C98    C99     1.388   .     S
C98    C105    1.395   .     S
C99    H100    0.930   .     S
C99    C101    1.391   .     S
C101   C102    1.386   .     S
C101   C107    1.529   .     S
C102   H103    0.930   .     S
C102   C104    1.393   .     S
C104   C108    1.481   .     S
C104   C105    1.379   .     S
C105   H106    0.930   .     S
S109   C120    1.753   .     S
S109   C121    1.760   .     S
S110   C120    1.759   .     S
S110   C122    1.761   .     S
O111   C143    1.269   .     S
O112   C143    1.229   .     S
O113   C144    1.264   .     S
O113   In290   2.241   .     S
O114   C144    1.282   .     S
O114   In290   2.336   .     S
O115   In289   2.346   1_556 S
O115   C132    1.261   .     S
O116   In289   2.214   1_556 S
O116   C132    1.259   .     S
O117   C133    1.209   .     S
O118   H119    0.819   .     S
O118   C133    1.277   .     S
C120   C156    1.340   1_455 S
C121   C134    1.476   .     S
C121   C122    1.351   .     S
C122   C123    1.462   .     S
C123   C124    1.415   .     S
C123   C130    1.385   .     S
C124   H125    0.930   .     S
C124   C126    1.362   .     S
C126   C127    1.392   .     S
C126   C132    1.498   .     S
C127   H128    0.930   .     S
C127   C129    1.380   .     S
C129   C130    1.383   .     S
C129   C133    1.494   .     S
C130   H131    0.930   .     S
C134   C135    1.388   .     S
C134   C141    1.395   .     S
C135   H136    0.930   .     S
C135   C137    1.391   .     S
C137   C138    1.386   .     S
C137   C143    1.529   .     S
C138   H139    0.930   .     S
C138   C140    1.393   .     S
C140   C144    1.481   .     S
C140   C141    1.379   .     S
C141   H142    0.930   .     S
S145   C156    1.753   .     S
S145   C157    1.760   .     S
S146   C156    1.759   .     S
S146   C158    1.761   .     S
O147   C179    1.269   .     S
O148   C179    1.229   .     S
O149   C180    1.264   .     S
O149   In292   2.241   .     S
O150   C180    1.282   .     S
O150   In292   2.336   .     S
O151   In291   2.346   1_556 S
O151   C168    1.261   .     S
O152   In291   2.214   1_556 S
O152   C168    1.259   .     S
O153   C169    1.209   .     S
O154   H155    0.819   .     S
O154   C169    1.277   .     S
C156   C120    1.340   1_655 S
C157   C170    1.476   .     S
C157   C158    1.351   .     S
C158   C159    1.462   .     S
C159   C160    1.415   .     S
C159   C166    1.385   .     S
C160   H161    0.930   .     S
C160   C162    1.362   .     S
C162   C163    1.392   .     S
C162   C168    1.498   .     S
C163   H164    0.930   .     S
C163   C165    1.380   .     S
C165   C166    1.383   .     S
C165   C169    1.494   .     S
C166   H167    0.930   .     S
C170   C171    1.388   .     S
C170   C177    1.395   .     S
C171   H172    0.930   .     S
C171   C173    1.391   .     S
C173   C174    1.386   .     S
C173   C179    1.529   .     S
C174   H175    0.930   .     S
C174   C176    1.393   .     S
C176   C180    1.481   .     S
C176   C177    1.379   .     S
C177   H178    0.930   .     S
S181   C192    1.753   .     S
S181   C193    1.760   .     S
S182   C192    1.759   .     S
S182   C194    1.761   .     S
O183   C215    1.269   .     S
O184   C215    1.229   .     S
O185   C216    1.264   .     S
O185   In291   2.241   .     S
O186   C216    1.282   .     S
O186   In291   2.336   .     S
O187   In292   2.346   .     S
O187   C204    1.261   .     S
O188   In292   2.214   .     S
O188   C204    1.259   .     S
O189   C205    1.209   .     S
O190   H191    0.819   .     S
O190   C205    1.277   .     S
C193   C206    1.476   .     S
C193   C194    1.351   .     S
C194   C195    1.462   .     S
C195   C196    1.415   .     S
C195   C202    1.385   .     S
C196   H197    0.930   .     S
C196   C198    1.362   .     S
C198   C199    1.392   .     S
C198   C204    1.498   .     S
C199   H200    0.930   .     S
C199   C201    1.380   .     S
C201   C202    1.383   .     S
C201   C205    1.494   .     S
C202   H203    0.930   .     S
C206   C207    1.388   .     S
C206   C213    1.395   .     S
C207   H208    0.930   .     S
C207   C209    1.391   .     S
C209   C210    1.386   .     S
C209   C215    1.529   .     S
C210   H211    0.930   .     S
C210   C212    1.393   .     S
C212   C216    1.481   .     S
C212   C213    1.379   .     S
C213   H214    0.930   .     S
S217   C228    1.753   .     S
S217   C229    1.760   .     S
S218   C228    1.759   .     S
S218   C230    1.761   .     S
O219   C251    1.269   .     S
O220   C251    1.229   .     S
O221   C252    1.264   .     S
O221   In291   2.241   1_556 S
O222   C252    1.282   .     S
O222   In291   2.336   1_556 S
O223   In292   2.346   .     S
O223   C240    1.261   .     S
O224   In292   2.214   .     S
O224   C240    1.259   .     S
O225   C241    1.209   .     S
O226   H227    0.819   .     S
O226   C241    1.277   .     S
C229   C242    1.476   .     S
C229   C230    1.351   .     S
C230   C231    1.462   .     S
C231   C232    1.415   .     S
C231   C238    1.385   .     S
C232   H233    0.930   .     S
C232   C234    1.362   .     S
C234   C235    1.392   .     S
C234   C240    1.498   .     S
C235   H236    0.930   .     S
C235   C237    1.380   .     S
C237   C238    1.383   .     S
C237   C241    1.494   .     S
C238   H239    0.930   .     S
C242   C243    1.388   .     S
C242   C249    1.395   .     S
C243   H244    0.930   .     S
C243   C245    1.391   .     S
C245   C246    1.386   .     S
C245   C251    1.529   .     S
C246   H247    0.930   .     S
C246   C248    1.393   .     S
C248   C252    1.481   .     S
C248   C249    1.379   .     S
C249   H250    0.930   .     S
S253   C264    1.753   .     S
S253   C265    1.760   .     S
S254   C264    1.759   .     S
S254   C266    1.761   .     S
O255   C287    1.269   .     S
O256   C287    1.229   .     S
O257   C288    1.264   .     S
O257   In292   2.241   .     S
O258   C288    1.282   .     S
O258   In292   2.336   .     S
O259   In291   2.346   .     S
O259   C276    1.261   .     S
O260   In291   2.214   .     S
O260   C276    1.259   .     S
O261   C277    1.209   .     S
O262   H263    0.819   .     S
O262   C277    1.277   .     S
C264   C12     1.340   1_655 S
C265   C278    1.476   .     S
C265   C266    1.351   .     S
C266   C267    1.462   .     S
C267   C268    1.415   .     S
C267   C274    1.385   .     S
C268   H269    0.930   .     S
C268   C270    1.362   .     S
C270   C271    1.392   .     S
C270   C276    1.498   .     S
C271   H272    0.930   .     S
C271   C273    1.380   .     S
C273   C274    1.383   .     S
C273   C277    1.494   .     S
C274   H275    0.930   .     S
C278   C279    1.388   .     S
C278   C285    1.395   .     S
C279   H280    0.930   .     S
C279   C281    1.391   .     S
C281   C282    1.386   .     S
C281   C287    1.529   .     S
C282   H283    0.930   .     S
C282   C284    1.393   .     S
C284   C288    1.481   .     S
C284   C285    1.379   .     S
C285   H286    0.930   .     S
In289  O115    2.346   1_554 S
In289  O116    2.214   1_554 S
In289  O41     2.241   1_554 S
In289  O42     2.336   1_554 S
In291  O151    2.346   1_554 S
In291  O152    2.214   1_554 S
In291  O221    2.241   1_554 S
In291  O222    2.336   1_554 S
