data_NOGJIF_FSR
_audit_creation_date              2024-06-11
_audit_creation_method            'Materials Studio'
_symmetry_space_group_name_H-M    'P1'
_symmetry_Int_Tables_number       1
_symmetry_cell_setting            triclinic
loop_
_symmetry_equiv_pos_as_xyz
  x,y,z
_cell_length_a                    21.8459
_cell_length_b                    19.8487
_cell_length_c                    25.4804
_cell_angle_alpha                 90.0000
_cell_angle_beta                  90.0000
_cell_angle_gamma                 90.0000
loop_
_atom_site_label
_atom_site_type_symbol
_atom_site_fract_x
_atom_site_fract_y
_atom_site_fract_z
_atom_site_U_iso_or_equiv
_atom_site_adp_type
_atom_site_occupancy
Cu1    Cu    0.58316   0.48562   0.95281   0.02193  Uani   1.00
Cu2    Cu    0.02897   0.60712   0.51705   0.02210  Uani   1.00
Cu3    Cu    0.61117   0.62166   0.77564   0.03100  Uani   1.00
Cu4    Cu    0.25872   0.67962   0.53798   0.03167  Uani   1.00
Cu5    Cu    0.44567   0.75590   0.68083   0.03270  Uani   1.00
Cu6    Cu    0.46061   0.45639   0.92655   0.02207  Uani   1.00
S7     S     0.44462   0.87775   0.53143   0.01833  Uani   1.00
S8     S     0.48705   0.56340   0.90904   0.02000  Uani   1.00
S9     S     0.12576   0.52840   0.47323   0.01973  Uani   1.00
O10    O     0.66940   0.58110   0.82278   0.03133  Uani   1.00
O11    O     0.18440   0.71380   0.56652   0.03633  Uani   1.00
O12    O     0.67480   0.66620   0.73430   0.06733  Uani   1.00
H13    H     0.65849   0.68617   0.70657   0.10100  Uiso   1.00
H14    H     0.70354   0.69358   0.74179   0.10100  Uiso   1.00
O15    O     0.54840   0.67510   0.73795   0.03767  Uani   1.00
O16    O     0.61010   0.52780   0.72090   0.06267  Uani   1.00
H17    H     0.61700   0.52380   0.68690   0.09400  Uiso   1.00
O18    O     0.33170   0.64030   0.50683   0.03900  Uani   1.00
O19    O     0.29720   0.69620   0.60646   0.04200  Uani   1.00
O20    O     0.27320   0.77530   0.49170   0.04800  Uani   1.00
O21    O     0.45140   0.70810   0.74594   0.03667  Uani   1.00
O22    O     0.36190   0.56080   0.45130   0.04933  Uani   1.00
O23    O     0.50250   0.82580   0.70061   0.03767  Uani   1.00
O24    O     0.36730   0.71090   0.66770   0.05200  Uani   1.00
O25    O     0.49550   0.67430   0.62640   0.06733  Uani   1.00
N26    N     0.54540   0.59900   0.82211   0.02367  Uani   1.00
N27    N     0.50850   0.88090   0.61996   0.02267  Uani   1.00
N28    N     0.21410   0.61700   0.49430   0.02633  Uani   1.00
N29    N     0.43150   0.79850   0.61510   0.02800  Uani   1.00
N30    N     0.60100   0.53130   0.88183   0.02200  Uani   1.00
N31    N     0.11410   0.64670   0.52101   0.02133  Uani   1.00
N32    N     0.30700   0.78880   0.40830   0.04067  Uani   1.00
N33    N     0.49540   0.56850   0.59480   0.05000  Uani   1.00
C34    C     0.63320   0.46720   0.74510   0.10133  Uani   1.00
H35    H     0.63713   0.43177   0.71856   0.15200  Uiso   1.00
H36    H     0.60483   0.45246   0.77258   0.15200  Uiso   1.00
H37    H     0.67342   0.47628   0.76068   0.15200  Uiso   1.00
C38    C     0.15650   0.60430   0.49750   0.02233  Uani   1.00
C39    C     0.27730   0.72860   0.38920   0.06467  Uani   1.00
H40    H     0.30838   0.69591   0.37817   0.09700  Uiso   1.00
H41    H     0.25113   0.73998   0.35928   0.09700  Uiso   1.00
H42    H     0.25231   0.70905   0.41727   0.09700  Uiso   1.00
C43    C     0.54940   0.56550   0.86540   0.02167  Uani   1.00
C44    C     0.65610   0.54120   0.86050   0.02733  Uani   1.00
C45    C     0.49750   0.67610   0.76100   0.03100  Uani   1.00
C46    C     0.52330   0.87000   0.66990   0.02767  Uani   1.00
C47    C     0.25540   0.56960   0.46890   0.03133  Uani   1.00
H48    H     0.24523   0.56667   0.43106   0.03700  Uiso   1.00
H49    H     0.24998   0.52434   0.48447   0.03700  Uiso   1.00
C50    C     0.34730   0.72150   0.62190   0.03500  Uani   1.00
C51    C     0.50080   0.61250   0.63280   0.05133  Uani   1.00
H52    H     0.50926   0.59627   0.66712   0.06200  Uiso   1.00
C53    C     0.30250   0.80390   0.45820   0.04600  Uani   1.00
H54    H     0.32510   0.84216   0.46944   0.05500  Uiso   1.00
C55    C     0.46190   0.84690   0.59460   0.02333  Uani   1.00
C56    C     0.34890   0.82900   0.37670   0.06567  Uani   1.00
H57    H     0.38086   0.79989   0.36208   0.09900  Uiso   1.00
H58    H     0.36772   0.86380   0.39868   0.09900  Uiso   1.00
H59    H     0.32623   0.85047   0.34797   0.09900  Uiso   1.00
C60    C     0.13090   0.69710   0.55340   0.02533  Uani   1.00
C61    C     0.70820   0.50420   0.88380   0.02333  Uani   1.00
C62    C     0.08000   0.73620   0.57790   0.02633  Uani   1.00
C63    C     0.48860   0.63450   0.80990   0.02800  Uani   1.00
H64    H     0.47715   0.66407   0.83958   0.03400  Uiso   1.00
H65    H     0.45520   0.60157   0.80437   0.03400  Uiso   1.00
C66    C     0.76420   0.53420   0.88780   0.03000  Uani   1.00
H67    H     0.76957   0.57873   0.87497   0.03600  Uiso   1.00
C68    C     0.70210   0.43750   0.90100   0.03567  Uani   1.00
H69    H     0.66394   0.41504   0.89720   0.04300  Uiso   1.00
C70    C     0.02640   0.75280   0.55210   0.02933  Uani   1.00
H71    H     0.02067   0.73893   0.51674   0.03500  Uiso   1.00
C72    C     0.08760   0.75800   0.62970   0.03333  Uani   1.00
H73    H     0.12446   0.74817   0.64794   0.04000  Uiso   1.00
C74    C     0.32190   0.59210   0.47530   0.03533  Uani   1.00
C75    C     0.81340   0.50090   0.91030   0.03700  Uani   1.00
H76    H     0.85164   0.52333   0.91338   0.04500  Uiso   1.00
C77    C     0.75100   0.40400   0.92330   0.03867  Uani   1.00
H78    H     0.74597   0.35903   0.93526   0.04700  Uiso   1.00
C79    C     0.98050   0.78960   0.57710   0.03533  Uani   1.00
H80    H     0.94429   0.80138   0.55866   0.04200  Uiso   1.00
C81    C     0.04140   0.79400   0.65440   0.03667  Uani   1.00
H82    H     0.04697   0.80848   0.68965   0.04400  Uiso   1.00
C83    C     0.80750   0.43540   0.92850   0.03133  Uani   1.00
C84    C     0.98780   0.80910   0.62890   0.03533  Uani   1.00
C85    C     0.85950   0.40010   0.95460   0.04467  Uani   1.00
H86    H     0.88978   0.38680   0.92816   0.06700  Uiso   1.00
H87    H     0.84431   0.35989   0.97272   0.06700  Uiso   1.00
H88    H     0.87873   0.43042   0.98013   0.06700  Uiso   1.00
C89    C     0.93690   0.84620   0.65680   0.05133  Uani   1.00
H90    H     0.90941   0.86650   0.63079   0.07700  Uiso   1.00
H91    H     0.95437   0.88163   0.67896   0.07700  Uiso   1.00
H92    H     0.91379   0.81450   0.67864   0.07700  Uiso   1.00
C93    C     0.38270   0.76500   0.58520   0.03100  Uani   1.00
H94    H     0.40061   0.73739   0.55676   0.03700  Uiso   1.00
H95    H     0.35536   0.79911   0.56920   0.03700  Uiso   1.00
C96    C     0.56950   0.91770   0.69270   0.03167  Uani   1.00
C97    C     0.62230   0.93500   0.66540   0.04500  Uani   1.00
H98    H     0.63084   0.91467   0.63249   0.05400  Uiso   1.00
C99    C     0.55820   0.94830   0.74070   0.04467  Uani   1.00
H100   H     0.52269   0.93691   0.76030   0.05400  Uiso   1.00
C101   C     0.48020   0.58840   0.54160   0.06567  Uani   1.00
H102   H     0.45534   0.62955   0.54246   0.09900  Uiso   1.00
H103   H     0.45695   0.55230   0.52452   0.09900  Uiso   1.00
H104   H     0.51789   0.59693   0.52188   0.09900  Uiso   1.00
C105   C     0.50510   0.49690   0.60620   0.07000  Uani   1.00
H106   H     0.53930   0.47998   0.58503   0.10500  Uiso   1.00
H107   H     0.46794   0.47150   0.59757   0.10500  Uiso   1.00
H108   H     0.51458   0.49121   0.64350   0.10500  Uiso   1.00
C109   C     0.66240   0.98170   0.68610   0.05400  Uani   1.00
H110   H     0.69876   0.99219   0.66743   0.06500  Uiso   1.00
C111   C     0.59950   0.99620   0.76000   0.04767  Uani   1.00
H112   H     0.59145   0.01708   0.79285   0.05700  Uiso   1.00
C113   C     0.65100   0.01360   0.73310   0.04733  Uani   1.00
C114   C     0.69520   0.06640   0.75390   0.06767  Uani   1.00
H115   H     0.72215   0.04589   0.78013   0.10100  Uiso   1.00
H116   H     0.67199   0.10321   0.77005   0.10100  Uiso   1.00
H117   H     0.71982   0.08412   0.72487   0.10100  Uiso   1.00
Cu118  Cu    0.91684   0.51438   0.45281   0.02193  Uani   1.00
Cu119  Cu    0.47103   0.39288   0.01705   0.02210  Uani   1.00
Cu120  Cu    0.88883   0.37834   0.27564   0.03100  Uani   1.00
Cu121  Cu    0.24128   0.32038   0.03798   0.03167  Uani   1.00
Cu122  Cu    0.05433   0.24410   0.18083   0.03270  Uani   1.00
Cu123  Cu    0.03939   0.54361   0.42655   0.02207  Uani   1.00
S124   S     0.05538   0.12225   0.03143   0.01833  Uani   1.00
S125   S     0.01295   0.43660   0.40904   0.02000  Uani   1.00
S126   S     0.37424   0.47160   0.97323   0.01973  Uani   1.00
O127   O     0.83060   0.41890   0.32278   0.03133  Uani   1.00
O128   O     0.31560   0.28620   0.06652   0.03633  Uani   1.00
O129   O     0.82520   0.33380   0.23430   0.06733  Uani   1.00
H130   H     0.84151   0.31383   0.20657   0.10100  Uiso   1.00
H131   H     0.79646   0.30642   0.24179   0.10100  Uiso   1.00
O132   O     0.95160   0.32490   0.23795   0.03767  Uani   1.00
O133   O     0.88990   0.47220   0.22090   0.06267  Uani   1.00
H134   H     0.88300   0.47620   0.18690   0.09400  Uiso   1.00
O135   O     0.16830   0.35970   0.00683   0.03900  Uani   1.00
O136   O     0.20280   0.30380   0.10646   0.04200  Uani   1.00
O137   O     0.22680   0.22470   0.99170   0.04800  Uani   1.00
O138   O     0.04860   0.29190   0.24594   0.03667  Uani   1.00
O139   O     0.13810   0.43920   0.95130   0.04933  Uani   1.00
O140   O     0.99750   0.17420   0.20061   0.03767  Uani   1.00
O141   O     0.13270   0.28910   0.16770   0.05200  Uani   1.00
O142   O     0.00450   0.32570   0.12640   0.06733  Uani   1.00
N143   N     0.95460   0.40100   0.32211   0.02367  Uani   1.00
N144   N     0.99150   0.11910   0.11996   0.02267  Uani   1.00
N145   N     0.28590   0.38300   0.99430   0.02633  Uani   1.00
N146   N     0.06850   0.20150   0.11510   0.02800  Uani   1.00
N147   N     0.89900   0.46870   0.38183   0.02200  Uani   1.00
N148   N     0.38590   0.35330   0.02101   0.02133  Uani   1.00
N149   N     0.19300   0.21120   0.90830   0.04067  Uani   1.00
N150   N     0.00460   0.43150   0.09480   0.05000  Uani   1.00
C151   C     0.86680   0.53280   0.24510   0.10133  Uani   1.00
H152   H     0.86287   0.56823   0.21856   0.15200  Uiso   1.00
H153   H     0.89517   0.54754   0.27258   0.15200  Uiso   1.00
H154   H     0.82658   0.52372   0.26068   0.15200  Uiso   1.00
C155   C     0.34350   0.39570   0.99750   0.02233  Uani   1.00
C156   C     0.22270   0.27140   0.88920   0.06467  Uani   1.00
H157   H     0.19162   0.30409   0.87817   0.09700  Uiso   1.00
H158   H     0.24887   0.26002   0.85928   0.09700  Uiso   1.00
H159   H     0.24769   0.29095   0.91727   0.09700  Uiso   1.00
C160   C     0.95060   0.43450   0.36540   0.02167  Uani   1.00
C161   C     0.84390   0.45880   0.36050   0.02733  Uani   1.00
C162   C     0.00250   0.32390   0.26100   0.03100  Uani   1.00
C163   C     0.97670   0.13000   0.16990   0.02767  Uani   1.00
C164   C     0.24460   0.43040   0.96890   0.03133  Uani   1.00
H165   H     0.25477   0.43333   0.93106   0.03700  Uiso   1.00
H166   H     0.25002   0.47566   0.98447   0.03700  Uiso   1.00
C167   C     0.15270   0.27850   0.12190   0.03500  Uani   1.00
C168   C     0.99920   0.38750   0.13280   0.05133  Uani   1.00
H169   H     0.99074   0.40373   0.16712   0.06200  Uiso   1.00
C170   C     0.19750   0.19610   0.95820   0.04600  Uani   1.00
H171   H     0.17490   0.15784   0.96944   0.05500  Uiso   1.00
C172   C     0.03810   0.15310   0.09460   0.02333  Uani   1.00
C173   C     0.15110   0.17100   0.87670   0.06567  Uani   1.00
H174   H     0.11914   0.20011   0.86208   0.09900  Uiso   1.00
H175   H     0.13228   0.13620   0.89868   0.09900  Uiso   1.00
H176   H     0.17377   0.14953   0.84797   0.09900  Uiso   1.00
C177   C     0.36910   0.30290   0.05340   0.02533  Uani   1.00
C178   C     0.79180   0.49580   0.38380   0.02333  Uani   1.00
C179   C     0.42000   0.26380   0.07790   0.02633  Uani   1.00
C180   C     0.01140   0.36550   0.30990   0.02800  Uani   1.00
H181   H     0.02285   0.33593   0.33958   0.03400  Uiso   1.00
H182   H     0.04480   0.39843   0.30437   0.03400  Uiso   1.00
C183   C     0.73580   0.46580   0.38780   0.03000  Uani   1.00
H184   H     0.73043   0.42127   0.37497   0.03600  Uiso   1.00
C185   C     0.79790   0.56250   0.40100   0.03567  Uani   1.00
H186   H     0.83606   0.58496   0.39720   0.04300  Uiso   1.00
C187   C     0.47360   0.24720   0.05210   0.02933  Uani   1.00
H188   H     0.47933   0.26107   0.01674   0.03500  Uiso   1.00
C189   C     0.41240   0.24200   0.12970   0.03333  Uani   1.00
H190   H     0.37554   0.25183   0.14794   0.04000  Uiso   1.00
C191   C     0.17810   0.40790   0.97530   0.03533  Uani   1.00
C192   C     0.68660   0.49910   0.41030   0.03700  Uani   1.00
H193   H     0.64836   0.47667   0.41338   0.04500  Uiso   1.00
C194   C     0.74900   0.59600   0.42330   0.03867  Uani   1.00
H195   H     0.75403   0.64097   0.43526   0.04700  Uiso   1.00
C196   C     0.51950   0.21040   0.07710   0.03533  Uani   1.00
H197   H     0.55571   0.19862   0.05866   0.04200  Uiso   1.00
C198   C     0.45860   0.20600   0.15440   0.03667  Uani   1.00
H199   H     0.45303   0.19152   0.18965   0.04400  Uiso   1.00
C200   C     0.69250   0.56460   0.42850   0.03133  Uani   1.00
C201   C     0.51220   0.19090   0.12890   0.03533  Uani   1.00
C202   C     0.64050   0.59990   0.45460   0.04467  Uani   1.00
H203   H     0.61022   0.61320   0.42816   0.06700  Uiso   1.00
H204   H     0.65569   0.64011   0.47272   0.06700  Uiso   1.00
H205   H     0.62127   0.56958   0.48013   0.06700  Uiso   1.00
C206   C     0.56310   0.15380   0.15680   0.05133  Uani   1.00
H207   H     0.59059   0.13350   0.13079   0.07700  Uiso   1.00
H208   H     0.54563   0.11837   0.17896   0.07700  Uiso   1.00
H209   H     0.58621   0.18550   0.17864   0.07700  Uiso   1.00
C210   C     0.11730   0.23500   0.08520   0.03100  Uani   1.00
H211   H     0.09939   0.26261   0.05676   0.03700  Uiso   1.00
H212   H     0.14464   0.20089   0.06920   0.03700  Uiso   1.00
C213   C     0.93050   0.08230   0.19270   0.03167  Uani   1.00
C214   C     0.87770   0.06500   0.16540   0.04500  Uani   1.00
H215   H     0.86916   0.08533   0.13249   0.05400  Uiso   1.00
C216   C     0.94180   0.05170   0.24070   0.04467  Uani   1.00
H217   H     0.97731   0.06309   0.26030   0.05400  Uiso   1.00
C218   C     0.01980   0.41160   0.04160   0.06567  Uani   1.00
H219   H     0.04466   0.37045   0.04246   0.09900  Uiso   1.00
H220   H     0.04305   0.44770   0.02452   0.09900  Uiso   1.00
H221   H     0.98211   0.40307   0.02188   0.09900  Uiso   1.00
C222   C     0.99490   0.50310   0.10620   0.07000  Uani   1.00
H223   H     0.96070   0.52002   0.08503   0.10500  Uiso   1.00
H224   H     0.03206   0.52850   0.09757   0.10500  Uiso   1.00
H225   H     0.98542   0.50879   0.14350   0.10500  Uiso   1.00
C226   C     0.83760   0.01830   0.18610   0.05400  Uani   1.00
H227   H     0.80124   0.00781   0.16743   0.06500  Uiso   1.00
C228   C     0.90050   0.00380   0.26000   0.04767  Uani   1.00
H229   H     0.90855   0.98292   0.29285   0.05700  Uiso   1.00
C230   C     0.84900   0.98640   0.23310   0.04733  Uani   1.00
C231   C     0.80480   0.93360   0.25390   0.06767  Uani   1.00
H232   H     0.77785   0.95411   0.28013   0.10100  Uiso   1.00
H233   H     0.82801   0.89679   0.27005   0.10100  Uiso   1.00
H234   H     0.78018   0.91588   0.22487   0.10100  Uiso   1.00
Cu235  Cu    0.41684   0.98562   0.54719   0.02193  Uani   1.00
Cu236  Cu    0.97103   0.10712   0.98295   0.02210  Uani   1.00
Cu237  Cu    0.38883   0.12166   0.72436   0.03100  Uani   1.00
Cu238  Cu    0.74128   0.17962   0.96202   0.03167  Uani   1.00
Cu239  Cu    0.55433   0.25590   0.81917   0.03270  Uani   1.00
Cu240  Cu    0.53939   0.95639   0.57345   0.02207  Uani   1.00
S241   S     0.55538   0.37775   0.96857   0.01833  Uani   1.00
S242   S     0.51295   0.06340   0.59096   0.02000  Uani   1.00
S243   S     0.87424   0.02840   0.02677   0.01973  Uani   1.00
O244   O     0.33060   0.08110   0.67722   0.03133  Uani   1.00
O245   O     0.81560   0.21380   0.93348   0.03633  Uani   1.00
O246   O     0.32520   0.16620   0.76570   0.06733  Uani   1.00
H247   H     0.34151   0.18617   0.79343   0.10100  Uiso   1.00
H248   H     0.29646   0.19358   0.75821   0.10100  Uiso   1.00
O249   O     0.45160   0.17510   0.76205   0.03767  Uani   1.00
O250   O     0.38990   0.02780   0.77910   0.06267  Uani   1.00
H251   H     0.38300   0.02380   0.81310   0.09400  Uiso   1.00
O252   O     0.66830   0.14030   0.99317   0.03900  Uani   1.00
O253   O     0.70280   0.19620   0.89354   0.04200  Uani   1.00
O254   O     0.72680   0.27530   0.00830   0.04800  Uani   1.00
O255   O     0.54860   0.20810   0.75406   0.03667  Uani   1.00
O256   O     0.63810   0.06080   0.04870   0.04933  Uani   1.00
O257   O     0.49750   0.32580   0.79939   0.03767  Uani   1.00
O258   O     0.63270   0.21090   0.83230   0.05200  Uani   1.00
O259   O     0.50450   0.17430   0.87360   0.06733  Uani   1.00
N260   N     0.45460   0.09900   0.67789   0.02367  Uani   1.00
N261   N     0.49150   0.38090   0.88004   0.02267  Uani   1.00
N262   N     0.78590   0.11700   0.00570   0.02633  Uani   1.00
N263   N     0.56850   0.29850   0.88490   0.02800  Uani   1.00
N264   N     0.39900   0.03130   0.61817   0.02200  Uani   1.00
N265   N     0.88590   0.14670   0.97899   0.02133  Uani   1.00
N266   N     0.69300   0.28880   0.09170   0.04067  Uani   1.00
N267   N     0.50460   0.06850   0.90520   0.05000  Uani   1.00
C268   C     0.36680   0.96720   0.75490   0.10133  Uani   1.00
H269   H     0.36287   0.93177   0.78144   0.15200  Uiso   1.00
H270   H     0.39517   0.95246   0.72742   0.15200  Uiso   1.00
H271   H     0.32658   0.97628   0.73932   0.15200  Uiso   1.00
C272   C     0.84350   0.10430   0.00250   0.02233  Uani   1.00
C273   C     0.72270   0.22860   0.11080   0.06467  Uani   1.00
H274   H     0.69162   0.19591   0.12183   0.09700  Uiso   1.00
H275   H     0.74887   0.23998   0.14072   0.09700  Uiso   1.00
H276   H     0.74769   0.20905   0.08273   0.09700  Uiso   1.00
C277   C     0.45060   0.06550   0.63460   0.02167  Uani   1.00
C278   C     0.34390   0.04120   0.63950   0.02733  Uani   1.00
C279   C     0.50250   0.17610   0.73900   0.03100  Uani   1.00
C280   C     0.47670   0.37000   0.83010   0.02767  Uani   1.00
C281   C     0.74460   0.06960   0.03110   0.03133  Uani   1.00
H282   H     0.75477   0.06667   0.06894   0.03700  Uiso   1.00
H283   H     0.75002   0.02434   0.01553   0.03700  Uiso   1.00
C284   C     0.65270   0.22150   0.87810   0.03500  Uani   1.00
C285   C     0.49920   0.11250   0.86720   0.05133  Uani   1.00
H286   H     0.49074   0.09627   0.83288   0.06200  Uiso   1.00
C287   C     0.69750   0.30390   0.04180   0.04600  Uani   1.00
H288   H     0.67490   0.34216   0.03056   0.05500  Uiso   1.00
C289   C     0.53810   0.34690   0.90540   0.02333  Uani   1.00
C290   C     0.65110   0.32900   0.12330   0.06567  Uani   1.00
H291   H     0.61914   0.29989   0.13792   0.09900  Uiso   1.00
H292   H     0.63228   0.36380   0.10132   0.09900  Uiso   1.00
H293   H     0.67377   0.35047   0.15203   0.09900  Uiso   1.00
C294   C     0.86910   0.19710   0.94660   0.02533  Uani   1.00
C295   C     0.29180   0.00420   0.61620   0.02333  Uani   1.00
C296   C     0.92000   0.23620   0.92210   0.02633  Uani   1.00
C297   C     0.51140   0.13450   0.69010   0.02800  Uani   1.00
H298   H     0.52285   0.16407   0.66042   0.03400  Uiso   1.00
H299   H     0.54480   0.10157   0.69563   0.03400  Uiso   1.00
C300   C     0.23580   0.03420   0.61220   0.03000  Uani   1.00
H301   H     0.23043   0.07873   0.62503   0.03600  Uiso   1.00
C302   C     0.29790   0.93750   0.59900   0.03567  Uani   1.00
H303   H     0.33606   0.91504   0.60280   0.04300  Uiso   1.00
C304   C     0.97360   0.25280   0.94790   0.02933  Uani   1.00
H305   H     0.97933   0.23893   0.98326   0.03500  Uiso   1.00
C306   C     0.91240   0.25800   0.87030   0.03333  Uani   1.00
H307   H     0.87554   0.24817   0.85206   0.04000  Uiso   1.00
C308   C     0.67810   0.09210   0.02470   0.03533  Uani   1.00
C309   C     0.18660   0.00090   0.58970   0.03700  Uani   1.00
H310   H     0.14836   0.02333   0.58662   0.04500  Uiso   1.00
C311   C     0.24900   0.90400   0.57670   0.03867  Uani   1.00
H312   H     0.25403   0.85903   0.56474   0.04700  Uiso   1.00
C313   C     0.01950   0.28960   0.92290   0.03533  Uani   1.00
H314   H     0.05571   0.30138   0.94134   0.04200  Uiso   1.00
C315   C     0.95860   0.29400   0.84560   0.03667  Uani   1.00
H316   H     0.95303   0.30848   0.81035   0.04400  Uiso   1.00
C317   C     0.19250   0.93540   0.57150   0.03133  Uani   1.00
C318   C     0.01220   0.30910   0.87110   0.03533  Uani   1.00
C319   C     0.14050   0.90010   0.54540   0.04467  Uani   1.00
H320   H     0.11022   0.88680   0.57184   0.06700  Uiso   1.00
H321   H     0.15569   0.85989   0.52728   0.06700  Uiso   1.00
H322   H     0.12127   0.93042   0.51987   0.06700  Uiso   1.00
C323   C     0.06310   0.34620   0.84320   0.05133  Uani   1.00
H324   H     0.09059   0.36650   0.86921   0.07700  Uiso   1.00
H325   H     0.04563   0.38163   0.82104   0.07700  Uiso   1.00
H326   H     0.08621   0.31450   0.82136   0.07700  Uiso   1.00
C327   C     0.61730   0.26500   0.91480   0.03100  Uani   1.00
H328   H     0.59939   0.23739   0.94324   0.03700  Uiso   1.00
H329   H     0.64464   0.29911   0.93080   0.03700  Uiso   1.00
C330   C     0.43050   0.41770   0.80730   0.03167  Uani   1.00
C331   C     0.37770   0.43500   0.83460   0.04500  Uani   1.00
H332   H     0.36916   0.41467   0.86751   0.05400  Uiso   1.00
C333   C     0.44180   0.44830   0.75930   0.04467  Uani   1.00
H334   H     0.47731   0.43691   0.73970   0.05400  Uiso   1.00
C335   C     0.51980   0.08840   0.95840   0.06567  Uani   1.00
H336   H     0.54466   0.12955   0.95754   0.09900  Uiso   1.00
H337   H     0.54305   0.05230   0.97548   0.09900  Uiso   1.00
H338   H     0.48211   0.09693   0.97812   0.09900  Uiso   1.00
C339   C     0.49490   0.99690   0.89380   0.07000  Uani   1.00
H340   H     0.46070   0.97998   0.91497   0.10500  Uiso   1.00
H341   H     0.53206   0.97150   0.90243   0.10500  Uiso   1.00
H342   H     0.48542   0.99121   0.85650   0.10500  Uiso   1.00
C343   C     0.33760   0.48170   0.81390   0.05400  Uani   1.00
H344   H     0.30124   0.49219   0.83257   0.06500  Uiso   1.00
C345   C     0.40050   0.49620   0.74000   0.04767  Uani   1.00
H346   H     0.40855   0.51708   0.70715   0.05700  Uiso   1.00
C347   C     0.34900   0.51360   0.76690   0.04733  Uani   1.00
C348   C     0.30480   0.56640   0.74610   0.06767  Uani   1.00
H349   H     0.27785   0.54589   0.71987   0.10100  Uiso   1.00
H350   H     0.32801   0.60321   0.72995   0.10100  Uiso   1.00
H351   H     0.28018   0.58412   0.77513   0.10100  Uiso   1.00
Cu352  Cu    0.08316   0.01438   0.04719   0.02193  Uani   1.00
Cu353  Cu    0.52897   0.89288   0.48295   0.02210  Uani   1.00
Cu354  Cu    0.11117   0.87834   0.22436   0.03100  Uani   1.00
Cu355  Cu    0.75872   0.82038   0.46202   0.03167  Uani   1.00
Cu356  Cu    0.94567   0.74410   0.31917   0.03270  Uani   1.00
Cu357  Cu    0.96061   0.04361   0.07345   0.02207  Uani   1.00
S358   S     0.94462   0.62225   0.46857   0.01833  Uani   1.00
S359   S     0.98705   0.93660   0.09096   0.02000  Uani   1.00
S360   S     0.62576   0.97160   0.52677   0.01973  Uani   1.00
O361   O     0.16940   0.91890   0.17722   0.03133  Uani   1.00
O362   O     0.68440   0.78620   0.43348   0.03633  Uani   1.00
O363   O     0.17480   0.83380   0.26570   0.06733  Uani   1.00
H364   H     0.15849   0.81383   0.29343   0.10100  Uiso   1.00
H365   H     0.20354   0.80642   0.25821   0.10100  Uiso   1.00
O366   O     0.04840   0.82490   0.26205   0.03767  Uani   1.00
O367   O     0.11010   0.97220   0.27910   0.06267  Uani   1.00
H368   H     0.11700   0.97620   0.31310   0.09400  Uiso   1.00
O369   O     0.83170   0.85970   0.49317   0.03900  Uani   1.00
O370   O     0.79720   0.80380   0.39354   0.04200  Uani   1.00
O371   O     0.77320   0.72470   0.50830   0.04800  Uani   1.00
O372   O     0.95140   0.79190   0.25406   0.03667  Uani   1.00
O373   O     0.86190   0.93920   0.54870   0.04933  Uani   1.00
O374   O     0.00250   0.67420   0.29939   0.03767  Uani   1.00
O375   O     0.86730   0.78910   0.33230   0.05200  Uani   1.00
O376   O     0.99550   0.82570   0.37360   0.06733  Uani   1.00
N377   N     0.04540   0.90100   0.17789   0.02367  Uani   1.00
N378   N     0.00850   0.61910   0.38004   0.02267  Uani   1.00
N379   N     0.71410   0.88300   0.50570   0.02633  Uani   1.00
N380   N     0.93150   0.70150   0.38490   0.02800  Uani   1.00
N381   N     0.10100   0.96870   0.11817   0.02200  Uani   1.00
N382   N     0.61410   0.85330   0.47899   0.02133  Uani   1.00
N383   N     0.80700   0.71120   0.59170   0.04067  Uani   1.00
N384   N     0.99540   0.93150   0.40520   0.05000  Uani   1.00
C385   C     0.13320   0.03280   0.25490   0.10133  Uani   1.00
H386   H     0.13713   0.06823   0.28144   0.15200  Uiso   1.00
H387   H     0.10483   0.04754   0.22742   0.15200  Uiso   1.00
H388   H     0.17342   0.02372   0.23932   0.15200  Uiso   1.00
C389   C     0.65650   0.89570   0.50250   0.02233  Uani   1.00
C390   C     0.77730   0.77140   0.61080   0.06467  Uani   1.00
H391   H     0.80838   0.80409   0.62183   0.09700  Uiso   1.00
H392   H     0.75113   0.76002   0.64072   0.09700  Uiso   1.00
H393   H     0.75231   0.79095   0.58273   0.09700  Uiso   1.00
C394   C     0.04940   0.93450   0.13460   0.02167  Uani   1.00
C395   C     0.15610   0.95880   0.13950   0.02733  Uani   1.00
C396   C     0.99750   0.82390   0.23900   0.03100  Uani   1.00
C397   C     0.02330   0.63000   0.33010   0.02767  Uani   1.00
C398   C     0.75540   0.93040   0.53110   0.03133  Uani   1.00
H399   H     0.74523   0.93333   0.56894   0.03700  Uiso   1.00
H400   H     0.74998   0.97566   0.51553   0.03700  Uiso   1.00
C401   C     0.84730   0.77850   0.37810   0.03500  Uani   1.00
C402   C     0.00080   0.88750   0.36720   0.05133  Uani   1.00
H403   H     0.00926   0.90373   0.33288   0.06200  Uiso   1.00
C404   C     0.80250   0.69610   0.54180   0.04600  Uani   1.00
H405   H     0.82510   0.65784   0.53056   0.05500  Uiso   1.00
C406   C     0.96190   0.65310   0.40540   0.02333  Uani   1.00
C407   C     0.84890   0.67100   0.62330   0.06567  Uani   1.00
H408   H     0.88086   0.70011   0.63792   0.09900  Uiso   1.00
H409   H     0.86772   0.63620   0.60132   0.09900  Uiso   1.00
H410   H     0.82623   0.64953   0.65203   0.09900  Uiso   1.00
C411   C     0.63090   0.80290   0.44660   0.02533  Uani   1.00
C412   C     0.20820   0.99580   0.11620   0.02333  Uani   1.00
C413   C     0.58000   0.76380   0.42210   0.02633  Uani   1.00
C414   C     0.98860   0.86550   0.19010   0.02800  Uani   1.00
H415   H     0.97715   0.83593   0.16042   0.03400  Uiso   1.00
H416   H     0.95520   0.89843   0.19563   0.03400  Uiso   1.00
C417   C     0.26420   0.96580   0.11220   0.03000  Uani   1.00
H418   H     0.26957   0.92127   0.12503   0.03600  Uiso   1.00
C419   C     0.20210   0.06250   0.09900   0.03567  Uani   1.00
H420   H     0.16394   0.08496   0.10280   0.04300  Uiso   1.00
C421   C     0.52640   0.74720   0.44790   0.02933  Uani   1.00
H422   H     0.52067   0.76107   0.48326   0.03500  Uiso   1.00
C423   C     0.58760   0.74200   0.37030   0.03333  Uani   1.00
H424   H     0.62446   0.75183   0.35206   0.04000  Uiso   1.00
C425   C     0.82190   0.90790   0.52470   0.03533  Uani   1.00
C426   C     0.31340   0.99910   0.08970   0.03700  Uani   1.00
H427   H     0.35164   0.97667   0.08662   0.04500  Uiso   1.00
C428   C     0.25100   0.09600   0.07670   0.03867  Uani   1.00
H429   H     0.24597   0.14097   0.06474   0.04700  Uiso   1.00
C430   C     0.48050   0.71040   0.42290   0.03533  Uani   1.00
H431   H     0.44429   0.69862   0.44134   0.04200  Uiso   1.00
C432   C     0.54140   0.70600   0.34560   0.03667  Uani   1.00
H433   H     0.54697   0.69152   0.31035   0.04400  Uiso   1.00
C434   C     0.30750   0.06460   0.07150   0.03133  Uani   1.00
C435   C     0.48780   0.69090   0.37110   0.03533  Uani   1.00
C436   C     0.35950   0.09990   0.04540   0.04467  Uani   1.00
H437   H     0.38978   0.11320   0.07184   0.06700  Uiso   1.00
H438   H     0.34431   0.14011   0.02728   0.06700  Uiso   1.00
H439   H     0.37873   0.06958   0.01987   0.06700  Uiso   1.00
C440   C     0.43690   0.65380   0.34320   0.05133  Uani   1.00
H441   H     0.40941   0.63350   0.36921   0.07700  Uiso   1.00
H442   H     0.45437   0.61837   0.32104   0.07700  Uiso   1.00
H443   H     0.41379   0.68550   0.32136   0.07700  Uiso   1.00
C444   C     0.88270   0.73500   0.41480   0.03100  Uani   1.00
H445   H     0.90061   0.76261   0.44324   0.03700  Uiso   1.00
H446   H     0.85536   0.70089   0.43080   0.03700  Uiso   1.00
C447   C     0.06950   0.58230   0.30730   0.03167  Uani   1.00
C448   C     0.12230   0.56500   0.33460   0.04500  Uani   1.00
H449   H     0.13084   0.58533   0.36751   0.05400  Uiso   1.00
C450   C     0.05820   0.55170   0.25930   0.04467  Uani   1.00
H451   H     0.02269   0.56309   0.23970   0.05400  Uiso   1.00
C452   C     0.98020   0.91160   0.45840   0.06567  Uani   1.00
H453   H     0.95534   0.87045   0.45754   0.09900  Uiso   1.00
H454   H     0.95695   0.94770   0.47548   0.09900  Uiso   1.00
H455   H     0.01789   0.90307   0.47812   0.09900  Uiso   1.00
C456   C     0.00510   0.00310   0.39380   0.07000  Uani   1.00
H457   H     0.03930   0.02002   0.41497   0.10500  Uiso   1.00
H458   H     0.96794   0.02850   0.40243   0.10500  Uiso   1.00
H459   H     0.01458   0.00879   0.35650   0.10500  Uiso   1.00
C460   C     0.16240   0.51830   0.31390   0.05400  Uani   1.00
H461   H     0.19876   0.50781   0.33257   0.06500  Uiso   1.00
C462   C     0.09950   0.50380   0.24000   0.04767  Uani   1.00
H463   H     0.09145   0.48292   0.20715   0.05700  Uiso   1.00
C464   C     0.15100   0.48640   0.26690   0.04733  Uani   1.00
C465   C     0.19520   0.43360   0.24610   0.06767  Uani   1.00
H466   H     0.22215   0.45411   0.21987   0.10100  Uiso   1.00
H467   H     0.17199   0.39679   0.22995   0.10100  Uiso   1.00
H468   H     0.21982   0.41588   0.27513   0.10100  Uiso   1.00
Cu469  Cu    0.41684   0.51438   0.04719   0.02193  Uani   1.00
Cu470  Cu    0.97103   0.39288   0.48295   0.02210  Uani   1.00
Cu471  Cu    0.38883   0.37834   0.22436   0.03100  Uani   1.00
Cu472  Cu    0.74128   0.32038   0.46202   0.03167  Uani   1.00
Cu473  Cu    0.55433   0.24410   0.31917   0.03270  Uani   1.00
Cu474  Cu    0.53939   0.54361   0.07345   0.02207  Uani   1.00
S475   S     0.55538   0.12225   0.46857   0.01833  Uani   1.00
S476   S     0.51295   0.43660   0.09096   0.02000  Uani   1.00
S477   S     0.87424   0.47160   0.52677   0.01973  Uani   1.00
O478   O     0.33060   0.41890   0.17722   0.03133  Uani   1.00
O479   O     0.81560   0.28620   0.43348   0.03633  Uani   1.00
O480   O     0.32520   0.33380   0.26570   0.06733  Uani   1.00
H481   H     0.34151   0.31383   0.29343   0.10100  Uiso   1.00
H482   H     0.29646   0.30642   0.25821   0.10100  Uiso   1.00
O483   O     0.45160   0.32490   0.26205   0.03767  Uani   1.00
O484   O     0.38990   0.47220   0.27910   0.06267  Uani   1.00
H485   H     0.38300   0.47620   0.31310   0.09400  Uiso   1.00
O486   O     0.66830   0.35970   0.49317   0.03900  Uani   1.00
O487   O     0.70280   0.30380   0.39354   0.04200  Uani   1.00
O488   O     0.72680   0.22470   0.50830   0.04800  Uani   1.00
O489   O     0.54860   0.29190   0.25406   0.03667  Uani   1.00
O490   O     0.63810   0.43920   0.54870   0.04933  Uani   1.00
O491   O     0.49750   0.17420   0.29939   0.03767  Uani   1.00
O492   O     0.63270   0.28910   0.33230   0.05200  Uani   1.00
O493   O     0.50450   0.32570   0.37360   0.06733  Uani   1.00
N494   N     0.45460   0.40100   0.17789   0.02367  Uani   1.00
N495   N     0.49150   0.11910   0.38004   0.02267  Uani   1.00
N496   N     0.78590   0.38300   0.50570   0.02633  Uani   1.00
N497   N     0.56850   0.20150   0.38490   0.02800  Uani   1.00
N498   N     0.39900   0.46870   0.11817   0.02200  Uani   1.00
N499   N     0.88590   0.35330   0.47899   0.02133  Uani   1.00
N500   N     0.69300   0.21120   0.59170   0.04067  Uani   1.00
N501   N     0.50460   0.43150   0.40520   0.05000  Uani   1.00
C502   C     0.36680   0.53280   0.25490   0.10133  Uani   1.00
H503   H     0.36287   0.56823   0.28144   0.15200  Uiso   1.00
H504   H     0.39517   0.54754   0.22742   0.15200  Uiso   1.00
H505   H     0.32658   0.52372   0.23932   0.15200  Uiso   1.00
C506   C     0.84350   0.39570   0.50250   0.02233  Uani   1.00
C507   C     0.72270   0.27140   0.61080   0.06467  Uani   1.00
H508   H     0.69162   0.30409   0.62183   0.09700  Uiso   1.00
H509   H     0.74887   0.26002   0.64072   0.09700  Uiso   1.00
H510   H     0.74769   0.29095   0.58273   0.09700  Uiso   1.00
C511   C     0.45060   0.43450   0.13460   0.02167  Uani   1.00
C512   C     0.34390   0.45880   0.13950   0.02733  Uani   1.00
C513   C     0.50250   0.32390   0.23900   0.03100  Uani   1.00
C514   C     0.47670   0.13000   0.33010   0.02767  Uani   1.00
C515   C     0.74460   0.43040   0.53110   0.03133  Uani   1.00
H516   H     0.75477   0.43333   0.56894   0.03700  Uiso   1.00
H517   H     0.75002   0.47566   0.51553   0.03700  Uiso   1.00
C518   C     0.65270   0.27850   0.37810   0.03500  Uani   1.00
C519   C     0.49920   0.38750   0.36720   0.05133  Uani   1.00
H520   H     0.49074   0.40373   0.33288   0.06200  Uiso   1.00
C521   C     0.69750   0.19610   0.54180   0.04600  Uani   1.00
H522   H     0.67490   0.15784   0.53056   0.05500  Uiso   1.00
C523   C     0.53810   0.15310   0.40540   0.02333  Uani   1.00
C524   C     0.65110   0.17100   0.62330   0.06567  Uani   1.00
H525   H     0.61914   0.20011   0.63792   0.09900  Uiso   1.00
H526   H     0.63228   0.13620   0.60132   0.09900  Uiso   1.00
H527   H     0.67377   0.14953   0.65203   0.09900  Uiso   1.00
C528   C     0.86910   0.30290   0.44660   0.02533  Uani   1.00
C529   C     0.29180   0.49580   0.11620   0.02333  Uani   1.00
C530   C     0.92000   0.26380   0.42210   0.02633  Uani   1.00
C531   C     0.51140   0.36550   0.19010   0.02800  Uani   1.00
H532   H     0.52285   0.33593   0.16042   0.03400  Uiso   1.00
H533   H     0.54480   0.39843   0.19563   0.03400  Uiso   1.00
C534   C     0.23580   0.46580   0.11220   0.03000  Uani   1.00
H535   H     0.23043   0.42127   0.12503   0.03600  Uiso   1.00
C536   C     0.29790   0.56250   0.09900   0.03567  Uani   1.00
H537   H     0.33606   0.58496   0.10280   0.04300  Uiso   1.00
C538   C     0.97360   0.24720   0.44790   0.02933  Uani   1.00
H539   H     0.97933   0.26107   0.48326   0.03500  Uiso   1.00
C540   C     0.91240   0.24200   0.37030   0.03333  Uani   1.00
H541   H     0.87554   0.25183   0.35206   0.04000  Uiso   1.00
C542   C     0.67810   0.40790   0.52470   0.03533  Uani   1.00
C543   C     0.18660   0.49910   0.08970   0.03700  Uani   1.00
H544   H     0.14836   0.47667   0.08662   0.04500  Uiso   1.00
C545   C     0.24900   0.59600   0.07670   0.03867  Uani   1.00
H546   H     0.25403   0.64097   0.06474   0.04700  Uiso   1.00
C547   C     0.01950   0.21040   0.42290   0.03533  Uani   1.00
H548   H     0.05571   0.19862   0.44134   0.04200  Uiso   1.00
C549   C     0.95860   0.20600   0.34560   0.03667  Uani   1.00
H550   H     0.95303   0.19152   0.31035   0.04400  Uiso   1.00
C551   C     0.19250   0.56460   0.07150   0.03133  Uani   1.00
C552   C     0.01220   0.19090   0.37110   0.03533  Uani   1.00
C553   C     0.14050   0.59990   0.04540   0.04467  Uani   1.00
H554   H     0.11022   0.61320   0.07184   0.06700  Uiso   1.00
H555   H     0.15569   0.64011   0.02728   0.06700  Uiso   1.00
H556   H     0.12127   0.56958   0.01987   0.06700  Uiso   1.00
C557   C     0.06310   0.15380   0.34320   0.05133  Uani   1.00
H558   H     0.09059   0.13350   0.36921   0.07700  Uiso   1.00
H559   H     0.04563   0.11837   0.32104   0.07700  Uiso   1.00
H560   H     0.08621   0.18550   0.32136   0.07700  Uiso   1.00
C561   C     0.61730   0.23500   0.41480   0.03100  Uani   1.00
H562   H     0.59939   0.26261   0.44324   0.03700  Uiso   1.00
H563   H     0.64464   0.20089   0.43080   0.03700  Uiso   1.00
C564   C     0.43050   0.08230   0.30730   0.03167  Uani   1.00
C565   C     0.37770   0.06500   0.33460   0.04500  Uani   1.00
H566   H     0.36916   0.08533   0.36751   0.05400  Uiso   1.00
C567   C     0.44180   0.05170   0.25930   0.04467  Uani   1.00
H568   H     0.47731   0.06309   0.23970   0.05400  Uiso   1.00
C569   C     0.51980   0.41160   0.45840   0.06567  Uani   1.00
H570   H     0.54466   0.37045   0.45754   0.09900  Uiso   1.00
H571   H     0.54305   0.44770   0.47548   0.09900  Uiso   1.00
H572   H     0.48211   0.40307   0.47812   0.09900  Uiso   1.00
C573   C     0.49490   0.50310   0.39380   0.07000  Uani   1.00
H574   H     0.46070   0.52002   0.41497   0.10500  Uiso   1.00
H575   H     0.53206   0.52850   0.40243   0.10500  Uiso   1.00
H576   H     0.48542   0.50879   0.35650   0.10500  Uiso   1.00
C577   C     0.33760   0.01830   0.31390   0.05400  Uani   1.00
H578   H     0.30124   0.00781   0.33257   0.06500  Uiso   1.00
C579   C     0.40050   0.00380   0.24000   0.04767  Uani   1.00
H580   H     0.40855   0.98292   0.20715   0.05700  Uiso   1.00
C581   C     0.34900   0.98640   0.26690   0.04733  Uani   1.00
C582   C     0.30480   0.93360   0.24610   0.06767  Uani   1.00
H583   H     0.27785   0.95411   0.21987   0.10100  Uiso   1.00
H584   H     0.32801   0.89679   0.22995   0.10100  Uiso   1.00
H585   H     0.28018   0.91588   0.27513   0.10100  Uiso   1.00
Cu586  Cu    0.08316   0.48562   0.54719   0.02193  Uani   1.00
Cu587  Cu    0.52897   0.60712   0.98295   0.02210  Uani   1.00
Cu588  Cu    0.11117   0.62166   0.72436   0.03100  Uani   1.00
Cu589  Cu    0.75872   0.67962   0.96202   0.03167  Uani   1.00
Cu590  Cu    0.94567   0.75590   0.81917   0.03270  Uani   1.00
Cu591  Cu    0.96061   0.45639   0.57345   0.02207  Uani   1.00
S592   S     0.94462   0.87775   0.96857   0.01833  Uani   1.00
S593   S     0.98705   0.56340   0.59096   0.02000  Uani   1.00
S594   S     0.62576   0.52840   0.02677   0.01973  Uani   1.00
O595   O     0.16940   0.58110   0.67722   0.03133  Uani   1.00
O596   O     0.68440   0.71380   0.93348   0.03633  Uani   1.00
O597   O     0.17480   0.66620   0.76570   0.06733  Uani   1.00
H598   H     0.15849   0.68617   0.79343   0.10100  Uiso   1.00
H599   H     0.20354   0.69358   0.75821   0.10100  Uiso   1.00
O600   O     0.04840   0.67510   0.76205   0.03767  Uani   1.00
O601   O     0.11010   0.52780   0.77910   0.06267  Uani   1.00
H602   H     0.11700   0.52380   0.81310   0.09400  Uiso   1.00
O603   O     0.83170   0.64030   0.99317   0.03900  Uani   1.00
O604   O     0.79720   0.69620   0.89354   0.04200  Uani   1.00
O605   O     0.77320   0.77530   0.00830   0.04800  Uani   1.00
O606   O     0.95140   0.70810   0.75406   0.03667  Uani   1.00
O607   O     0.86190   0.56080   0.04870   0.04933  Uani   1.00
O608   O     0.00250   0.82580   0.79939   0.03767  Uani   1.00
O609   O     0.86730   0.71090   0.83230   0.05200  Uani   1.00
O610   O     0.99550   0.67430   0.87360   0.06733  Uani   1.00
N611   N     0.04540   0.59900   0.67789   0.02367  Uani   1.00
N612   N     0.00850   0.88090   0.88004   0.02267  Uani   1.00
N613   N     0.71410   0.61700   0.00570   0.02633  Uani   1.00
N614   N     0.93150   0.79850   0.88490   0.02800  Uani   1.00
N615   N     0.10100   0.53130   0.61817   0.02200  Uani   1.00
N616   N     0.61410   0.64670   0.97899   0.02133  Uani   1.00
N617   N     0.80700   0.78880   0.09170   0.04067  Uani   1.00
N618   N     0.99540   0.56850   0.90520   0.05000  Uani   1.00
C619   C     0.13320   0.46720   0.75490   0.10133  Uani   1.00
H620   H     0.13713   0.43177   0.78144   0.15200  Uiso   1.00
H621   H     0.10483   0.45246   0.72742   0.15200  Uiso   1.00
H622   H     0.17342   0.47628   0.73932   0.15200  Uiso   1.00
C623   C     0.65650   0.60430   0.00250   0.02233  Uani   1.00
C624   C     0.77730   0.72860   0.11080   0.06467  Uani   1.00
H625   H     0.80838   0.69591   0.12183   0.09700  Uiso   1.00
H626   H     0.75113   0.73998   0.14072   0.09700  Uiso   1.00
H627   H     0.75231   0.70905   0.08273   0.09700  Uiso   1.00
C628   C     0.04940   0.56550   0.63460   0.02167  Uani   1.00
C629   C     0.15610   0.54120   0.63950   0.02733  Uani   1.00
C630   C     0.99750   0.67610   0.73900   0.03100  Uani   1.00
C631   C     0.02330   0.87000   0.83010   0.02767  Uani   1.00
C632   C     0.75540   0.56960   0.03110   0.03133  Uani   1.00
H633   H     0.74523   0.56667   0.06894   0.03700  Uiso   1.00
H634   H     0.74998   0.52434   0.01553   0.03700  Uiso   1.00
C635   C     0.84730   0.72150   0.87810   0.03500  Uani   1.00
C636   C     0.00080   0.61250   0.86720   0.05133  Uani   1.00
H637   H     0.00926   0.59627   0.83288   0.06200  Uiso   1.00
C638   C     0.80250   0.80390   0.04180   0.04600  Uani   1.00
H639   H     0.82510   0.84216   0.03056   0.05500  Uiso   1.00
C640   C     0.96190   0.84690   0.90540   0.02333  Uani   1.00
C641   C     0.84890   0.82900   0.12330   0.06567  Uani   1.00
H642   H     0.88086   0.79989   0.13792   0.09900  Uiso   1.00
H643   H     0.86772   0.86380   0.10132   0.09900  Uiso   1.00
H644   H     0.82623   0.85047   0.15203   0.09900  Uiso   1.00
C645   C     0.63090   0.69710   0.94660   0.02533  Uani   1.00
C646   C     0.20820   0.50420   0.61620   0.02333  Uani   1.00
C647   C     0.58000   0.73620   0.92210   0.02633  Uani   1.00
C648   C     0.98860   0.63450   0.69010   0.02800  Uani   1.00
H649   H     0.97715   0.66407   0.66042   0.03400  Uiso   1.00
H650   H     0.95520   0.60157   0.69563   0.03400  Uiso   1.00
C651   C     0.26420   0.53420   0.61220   0.03000  Uani   1.00
H652   H     0.26957   0.57873   0.62503   0.03600  Uiso   1.00
C653   C     0.20210   0.43750   0.59900   0.03567  Uani   1.00
H654   H     0.16394   0.41504   0.60280   0.04300  Uiso   1.00
C655   C     0.52640   0.75280   0.94790   0.02933  Uani   1.00
H656   H     0.52067   0.73893   0.98326   0.03500  Uiso   1.00
C657   C     0.58760   0.75800   0.87030   0.03333  Uani   1.00
H658   H     0.62446   0.74817   0.85206   0.04000  Uiso   1.00
C659   C     0.82190   0.59210   0.02470   0.03533  Uani   1.00
C660   C     0.31340   0.50090   0.58970   0.03700  Uani   1.00
H661   H     0.35164   0.52333   0.58662   0.04500  Uiso   1.00
C662   C     0.25100   0.40400   0.57670   0.03867  Uani   1.00
H663   H     0.24597   0.35903   0.56474   0.04700  Uiso   1.00
C664   C     0.48050   0.78960   0.92290   0.03533  Uani   1.00
H665   H     0.44429   0.80138   0.94134   0.04200  Uiso   1.00
C666   C     0.54140   0.79400   0.84560   0.03667  Uani   1.00
H667   H     0.54697   0.80848   0.81035   0.04400  Uiso   1.00
C668   C     0.30750   0.43540   0.57150   0.03133  Uani   1.00
C669   C     0.48780   0.80910   0.87110   0.03533  Uani   1.00
C670   C     0.35950   0.40010   0.54540   0.04467  Uani   1.00
H671   H     0.38978   0.38680   0.57184   0.06700  Uiso   1.00
H672   H     0.34431   0.35989   0.52728   0.06700  Uiso   1.00
H673   H     0.37873   0.43042   0.51987   0.06700  Uiso   1.00
C674   C     0.43690   0.84620   0.84320   0.05133  Uani   1.00
H675   H     0.40941   0.86650   0.86921   0.07700  Uiso   1.00
H676   H     0.45437   0.88163   0.82104   0.07700  Uiso   1.00
H677   H     0.41379   0.81450   0.82136   0.07700  Uiso   1.00
C678   C     0.88270   0.76500   0.91480   0.03100  Uani   1.00
H679   H     0.90061   0.73739   0.94324   0.03700  Uiso   1.00
H680   H     0.85536   0.79911   0.93080   0.03700  Uiso   1.00
C681   C     0.06950   0.91770   0.80730   0.03167  Uani   1.00
C682   C     0.12230   0.93500   0.83460   0.04500  Uani   1.00
H683   H     0.13084   0.91467   0.86751   0.05400  Uiso   1.00
C684   C     0.05820   0.94830   0.75930   0.04467  Uani   1.00
H685   H     0.02269   0.93691   0.73970   0.05400  Uiso   1.00
C686   C     0.98020   0.58840   0.95840   0.06567  Uani   1.00
H687   H     0.95534   0.62955   0.95754   0.09900  Uiso   1.00
H688   H     0.95695   0.55230   0.97548   0.09900  Uiso   1.00
H689   H     0.01789   0.59693   0.97812   0.09900  Uiso   1.00
C690   C     0.00510   0.49690   0.89380   0.07000  Uani   1.00
H691   H     0.03930   0.47998   0.91497   0.10500  Uiso   1.00
H692   H     0.96794   0.47150   0.90243   0.10500  Uiso   1.00
H693   H     0.01458   0.49121   0.85650   0.10500  Uiso   1.00
C694   C     0.16240   0.98170   0.81390   0.05400  Uani   1.00
H695   H     0.19876   0.99219   0.83257   0.06500  Uiso   1.00
C696   C     0.09950   0.99620   0.74000   0.04767  Uani   1.00
H697   H     0.09145   0.01708   0.70715   0.05700  Uiso   1.00
C698   C     0.15100   0.01360   0.76690   0.04733  Uani   1.00
C699   C     0.19520   0.06640   0.74610   0.06767  Uani   1.00
H700   H     0.22215   0.04589   0.71987   0.10100  Uiso   1.00
H701   H     0.17199   0.10321   0.72995   0.10100  Uiso   1.00
H702   H     0.21982   0.08412   0.77513   0.10100  Uiso   1.00
Cu703  Cu    0.58316   0.01438   0.45281   0.02193  Uani   1.00
Cu704  Cu    0.02897   0.89288   0.01705   0.02210  Uani   1.00
Cu705  Cu    0.61117   0.87834   0.27564   0.03100  Uani   1.00
Cu706  Cu    0.25872   0.82038   0.03798   0.03167  Uani   1.00
Cu707  Cu    0.44567   0.74410   0.18083   0.03270  Uani   1.00
Cu708  Cu    0.46061   0.04361   0.42655   0.02207  Uani   1.00
S709   S     0.44462   0.62225   0.03143   0.01833  Uani   1.00
S710   S     0.48705   0.93660   0.40904   0.02000  Uani   1.00
S711   S     0.12576   0.97160   0.97323   0.01973  Uani   1.00
O712   O     0.66940   0.91890   0.32278   0.03133  Uani   1.00
O713   O     0.18440   0.78620   0.06652   0.03633  Uani   1.00
O714   O     0.67480   0.83380   0.23430   0.06733  Uani   1.00
H715   H     0.65849   0.81383   0.20657   0.10100  Uiso   1.00
H716   H     0.70354   0.80642   0.24179   0.10100  Uiso   1.00
O717   O     0.54840   0.82490   0.23795   0.03767  Uani   1.00
O718   O     0.61010   0.97220   0.22090   0.06267  Uani   1.00
H719   H     0.61700   0.97620   0.18690   0.09400  Uiso   1.00
O720   O     0.33170   0.85970   0.00683   0.03900  Uani   1.00
O721   O     0.29720   0.80380   0.10646   0.04200  Uani   1.00
O722   O     0.27320   0.72470   0.99170   0.04800  Uani   1.00
O723   O     0.45140   0.79190   0.24594   0.03667  Uani   1.00
O724   O     0.36190   0.93920   0.95130   0.04933  Uani   1.00
O725   O     0.50250   0.67420   0.20061   0.03767  Uani   1.00
O726   O     0.36730   0.78910   0.16770   0.05200  Uani   1.00
O727   O     0.49550   0.82570   0.12640   0.06733  Uani   1.00
N728   N     0.54540   0.90100   0.32211   0.02367  Uani   1.00
N729   N     0.50850   0.61910   0.11996   0.02267  Uani   1.00
N730   N     0.21410   0.88300   0.99430   0.02633  Uani   1.00
N731   N     0.43150   0.70150   0.11510   0.02800  Uani   1.00
N732   N     0.60100   0.96870   0.38183   0.02200  Uani   1.00
N733   N     0.11410   0.85330   0.02101   0.02133  Uani   1.00
N734   N     0.30700   0.71120   0.90830   0.04067  Uani   1.00
N735   N     0.49540   0.93150   0.09480   0.05000  Uani   1.00
C736   C     0.63320   0.03280   0.24510   0.10133  Uani   1.00
H737   H     0.63713   0.06823   0.21856   0.15200  Uiso   1.00
H738   H     0.60483   0.04754   0.27258   0.15200  Uiso   1.00
H739   H     0.67342   0.02372   0.26068   0.15200  Uiso   1.00
C740   C     0.15650   0.89570   0.99750   0.02233  Uani   1.00
C741   C     0.27730   0.77140   0.88920   0.06467  Uani   1.00
H742   H     0.30838   0.80409   0.87817   0.09700  Uiso   1.00
H743   H     0.25113   0.76002   0.85928   0.09700  Uiso   1.00
H744   H     0.25231   0.79095   0.91727   0.09700  Uiso   1.00
C745   C     0.54940   0.93450   0.36540   0.02167  Uani   1.00
C746   C     0.65610   0.95880   0.36050   0.02733  Uani   1.00
C747   C     0.49750   0.82390   0.26100   0.03100  Uani   1.00
C748   C     0.52330   0.63000   0.16990   0.02767  Uani   1.00
C749   C     0.25540   0.93040   0.96890   0.03133  Uani   1.00
H750   H     0.24523   0.93333   0.93106   0.03700  Uiso   1.00
H751   H     0.24998   0.97566   0.98447   0.03700  Uiso   1.00
C752   C     0.34730   0.77850   0.12190   0.03500  Uani   1.00
C753   C     0.50080   0.88750   0.13280   0.05133  Uani   1.00
H754   H     0.50926   0.90373   0.16712   0.06200  Uiso   1.00
C755   C     0.30250   0.69610   0.95820   0.04600  Uani   1.00
H756   H     0.32510   0.65784   0.96944   0.05500  Uiso   1.00
C757   C     0.46190   0.65310   0.09460   0.02333  Uani   1.00
C758   C     0.34890   0.67100   0.87670   0.06567  Uani   1.00
H759   H     0.38086   0.70011   0.86208   0.09900  Uiso   1.00
H760   H     0.36772   0.63620   0.89868   0.09900  Uiso   1.00
H761   H     0.32623   0.64953   0.84797   0.09900  Uiso   1.00
C762   C     0.13090   0.80290   0.05340   0.02533  Uani   1.00
C763   C     0.70820   0.99580   0.38380   0.02333  Uani   1.00
C764   C     0.08000   0.76380   0.07790   0.02633  Uani   1.00
C765   C     0.48860   0.86550   0.30990   0.02800  Uani   1.00
H766   H     0.47715   0.83593   0.33958   0.03400  Uiso   1.00
H767   H     0.45520   0.89843   0.30437   0.03400  Uiso   1.00
C768   C     0.76420   0.96580   0.38780   0.03000  Uani   1.00
H769   H     0.76957   0.92127   0.37497   0.03600  Uiso   1.00
C770   C     0.70210   0.06250   0.40100   0.03567  Uani   1.00
H771   H     0.66394   0.08496   0.39720   0.04300  Uiso   1.00
C772   C     0.02640   0.74720   0.05210   0.02933  Uani   1.00
H773   H     0.02067   0.76107   0.01674   0.03500  Uiso   1.00
C774   C     0.08760   0.74200   0.12970   0.03333  Uani   1.00
H775   H     0.12446   0.75183   0.14794   0.04000  Uiso   1.00
C776   C     0.32190   0.90790   0.97530   0.03533  Uani   1.00
C777   C     0.81340   0.99910   0.41030   0.03700  Uani   1.00
H778   H     0.85164   0.97667   0.41338   0.04500  Uiso   1.00
C779   C     0.75100   0.09600   0.42330   0.03867  Uani   1.00
H780   H     0.74597   0.14097   0.43526   0.04700  Uiso   1.00
C781   C     0.98050   0.71040   0.07710   0.03533  Uani   1.00
H782   H     0.94429   0.69862   0.05866   0.04200  Uiso   1.00
C783   C     0.04140   0.70600   0.15440   0.03667  Uani   1.00
H784   H     0.04697   0.69152   0.18965   0.04400  Uiso   1.00
C785   C     0.80750   0.06460   0.42850   0.03133  Uani   1.00
C786   C     0.98780   0.69090   0.12890   0.03533  Uani   1.00
C787   C     0.85950   0.09990   0.45460   0.04467  Uani   1.00
H788   H     0.88978   0.11320   0.42816   0.06700  Uiso   1.00
H789   H     0.84431   0.14011   0.47272   0.06700  Uiso   1.00
H790   H     0.87873   0.06958   0.48013   0.06700  Uiso   1.00
C791   C     0.93690   0.65380   0.15680   0.05133  Uani   1.00
H792   H     0.90941   0.63350   0.13079   0.07700  Uiso   1.00
H793   H     0.95437   0.61837   0.17896   0.07700  Uiso   1.00
H794   H     0.91379   0.68550   0.17864   0.07700  Uiso   1.00
C795   C     0.38270   0.73500   0.08520   0.03100  Uani   1.00
H796   H     0.40061   0.76261   0.05676   0.03700  Uiso   1.00
H797   H     0.35536   0.70089   0.06920   0.03700  Uiso   1.00
C798   C     0.56950   0.58230   0.19270   0.03167  Uani   1.00
C799   C     0.62230   0.56500   0.16540   0.04500  Uani   1.00
H800   H     0.63084   0.58533   0.13249   0.05400  Uiso   1.00
C801   C     0.55820   0.55170   0.24070   0.04467  Uani   1.00
H802   H     0.52269   0.56309   0.26030   0.05400  Uiso   1.00
C803   C     0.48020   0.91160   0.04160   0.06567  Uani   1.00
H804   H     0.45534   0.87045   0.04246   0.09900  Uiso   1.00
H805   H     0.45695   0.94770   0.02452   0.09900  Uiso   1.00
H806   H     0.51789   0.90307   0.02188   0.09900  Uiso   1.00
C807   C     0.50510   0.00310   0.10620   0.07000  Uani   1.00
H808   H     0.53930   0.02002   0.08503   0.10500  Uiso   1.00
H809   H     0.46794   0.02850   0.09757   0.10500  Uiso   1.00
H810   H     0.51458   0.00879   0.14350   0.10500  Uiso   1.00
C811   C     0.66240   0.51830   0.18610   0.05400  Uani   1.00
H812   H     0.69876   0.50781   0.16743   0.06500  Uiso   1.00
C813   C     0.59950   0.50380   0.26000   0.04767  Uani   1.00
H814   H     0.59145   0.48292   0.29285   0.05700  Uiso   1.00
C815   C     0.65100   0.48640   0.23310   0.04733  Uani   1.00
C816   C     0.69520   0.43360   0.25390   0.06767  Uani   1.00
H817   H     0.72215   0.45411   0.28013   0.10100  Uiso   1.00
H818   H     0.67199   0.39679   0.27005   0.10100  Uiso   1.00
H819   H     0.71982   0.41588   0.22487   0.10100  Uiso   1.00
Cu820  Cu    0.91684   0.98562   0.95281   0.02193  Uani   1.00
Cu821  Cu    0.47103   0.10712   0.51705   0.02210  Uani   1.00
Cu822  Cu    0.88883   0.12166   0.77564   0.03100  Uani   1.00
Cu823  Cu    0.24128   0.17962   0.53798   0.03167  Uani   1.00
Cu824  Cu    0.05433   0.25590   0.68083   0.03270  Uani   1.00
Cu825  Cu    0.03939   0.95639   0.92655   0.02207  Uani   1.00
S826   S     0.05538   0.37775   0.53143   0.01833  Uani   1.00
S827   S     0.01295   0.06340   0.90904   0.02000  Uani   1.00
S828   S     0.37424   0.02840   0.47323   0.01973  Uani   1.00
O829   O     0.83060   0.08110   0.82278   0.03133  Uani   1.00
O830   O     0.31560   0.21380   0.56652   0.03633  Uani   1.00
O831   O     0.82520   0.16620   0.73430   0.06733  Uani   1.00
H832   H     0.84151   0.18617   0.70657   0.10100  Uiso   1.00
H833   H     0.79646   0.19358   0.74179   0.10100  Uiso   1.00
O834   O     0.95160   0.17510   0.73795   0.03767  Uani   1.00
O835   O     0.88990   0.02780   0.72090   0.06267  Uani   1.00
H836   H     0.88300   0.02380   0.68690   0.09400  Uiso   1.00
O837   O     0.16830   0.14030   0.50683   0.03900  Uani   1.00
O838   O     0.20280   0.19620   0.60646   0.04200  Uani   1.00
O839   O     0.22680   0.27530   0.49170   0.04800  Uani   1.00
O840   O     0.04860   0.20810   0.74594   0.03667  Uani   1.00
O841   O     0.13810   0.06080   0.45130   0.04933  Uani   1.00
O842   O     0.99750   0.32580   0.70061   0.03767  Uani   1.00
O843   O     0.13270   0.21090   0.66770   0.05200  Uani   1.00
O844   O     0.00450   0.17430   0.62640   0.06733  Uani   1.00
N845   N     0.95460   0.09900   0.82211   0.02367  Uani   1.00
N846   N     0.99150   0.38090   0.61996   0.02267  Uani   1.00
N847   N     0.28590   0.11700   0.49430   0.02633  Uani   1.00
N848   N     0.06850   0.29850   0.61510   0.02800  Uani   1.00
N849   N     0.89900   0.03130   0.88183   0.02200  Uani   1.00
N850   N     0.38590   0.14670   0.52101   0.02133  Uani   1.00
N851   N     0.19300   0.28880   0.40830   0.04067  Uani   1.00
N852   N     0.00460   0.06850   0.59480   0.05000  Uani   1.00
C853   C     0.86680   0.96720   0.74510   0.10133  Uani   1.00
H854   H     0.86287   0.93177   0.71856   0.15200  Uiso   1.00
H855   H     0.89517   0.95246   0.77258   0.15200  Uiso   1.00
H856   H     0.82658   0.97628   0.76068   0.15200  Uiso   1.00
C857   C     0.34350   0.10430   0.49750   0.02233  Uani   1.00
C858   C     0.22270   0.22860   0.38920   0.06467  Uani   1.00
H859   H     0.19162   0.19591   0.37817   0.09700  Uiso   1.00
H860   H     0.24887   0.23998   0.35928   0.09700  Uiso   1.00
H861   H     0.24769   0.20905   0.41727   0.09700  Uiso   1.00
C862   C     0.95060   0.06550   0.86540   0.02167  Uani   1.00
C863   C     0.84390   0.04120   0.86050   0.02733  Uani   1.00
C864   C     0.00250   0.17610   0.76100   0.03100  Uani   1.00
C865   C     0.97670   0.37000   0.66990   0.02767  Uani   1.00
C866   C     0.24460   0.06960   0.46890   0.03133  Uani   1.00
H867   H     0.25477   0.06667   0.43106   0.03700  Uiso   1.00
H868   H     0.25002   0.02434   0.48447   0.03700  Uiso   1.00
C869   C     0.15270   0.22150   0.62190   0.03500  Uani   1.00
C870   C     0.99920   0.11250   0.63280   0.05133  Uani   1.00
H871   H     0.99074   0.09627   0.66712   0.06200  Uiso   1.00
C872   C     0.19750   0.30390   0.45820   0.04600  Uani   1.00
H873   H     0.17490   0.34216   0.46944   0.05500  Uiso   1.00
C874   C     0.03810   0.34690   0.59460   0.02333  Uani   1.00
C875   C     0.15110   0.32900   0.37670   0.06567  Uani   1.00
H876   H     0.11914   0.29989   0.36208   0.09900  Uiso   1.00
H877   H     0.13228   0.36380   0.39868   0.09900  Uiso   1.00
H878   H     0.17377   0.35047   0.34797   0.09900  Uiso   1.00
C879   C     0.36910   0.19710   0.55340   0.02533  Uani   1.00
C880   C     0.79180   0.00420   0.88380   0.02333  Uani   1.00
C881   C     0.42000   0.23620   0.57790   0.02633  Uani   1.00
C882   C     0.01140   0.13450   0.80990   0.02800  Uani   1.00
H883   H     0.02285   0.16407   0.83958   0.03400  Uiso   1.00
H884   H     0.04480   0.10157   0.80437   0.03400  Uiso   1.00
C885   C     0.73580   0.03420   0.88780   0.03000  Uani   1.00
H886   H     0.73043   0.07873   0.87497   0.03600  Uiso   1.00
C887   C     0.79790   0.93750   0.90100   0.03567  Uani   1.00
H888   H     0.83606   0.91504   0.89720   0.04300  Uiso   1.00
C889   C     0.47360   0.25280   0.55210   0.02933  Uani   1.00
H890   H     0.47933   0.23893   0.51674   0.03500  Uiso   1.00
C891   C     0.41240   0.25800   0.62970   0.03333  Uani   1.00
H892   H     0.37554   0.24817   0.64794   0.04000  Uiso   1.00
C893   C     0.17810   0.09210   0.47530   0.03533  Uani   1.00
C894   C     0.68660   0.00090   0.91030   0.03700  Uani   1.00
H895   H     0.64836   0.02333   0.91338   0.04500  Uiso   1.00
C896   C     0.74900   0.90400   0.92330   0.03867  Uani   1.00
H897   H     0.75403   0.85903   0.93526   0.04700  Uiso   1.00
C898   C     0.51950   0.28960   0.57710   0.03533  Uani   1.00
H899   H     0.55571   0.30138   0.55866   0.04200  Uiso   1.00
C900   C     0.45860   0.29400   0.65440   0.03667  Uani   1.00
H901   H     0.45303   0.30848   0.68965   0.04400  Uiso   1.00
C902   C     0.69250   0.93540   0.92850   0.03133  Uani   1.00
C903   C     0.51220   0.30910   0.62890   0.03533  Uani   1.00
C904   C     0.64050   0.90010   0.95460   0.04467  Uani   1.00
H905   H     0.61022   0.88680   0.92816   0.06700  Uiso   1.00
H906   H     0.65569   0.85989   0.97272   0.06700  Uiso   1.00
H907   H     0.62127   0.93042   0.98013   0.06700  Uiso   1.00
C908   C     0.56310   0.34620   0.65680   0.05133  Uani   1.00
H909   H     0.59059   0.36650   0.63079   0.07700  Uiso   1.00
H910   H     0.54563   0.38163   0.67896   0.07700  Uiso   1.00
H911   H     0.58621   0.31450   0.67864   0.07700  Uiso   1.00
C912   C     0.11730   0.26500   0.58520   0.03100  Uani   1.00
H913   H     0.09939   0.23739   0.55676   0.03700  Uiso   1.00
H914   H     0.14464   0.29911   0.56920   0.03700  Uiso   1.00
C915   C     0.93050   0.41770   0.69270   0.03167  Uani   1.00
C916   C     0.87770   0.43500   0.66540   0.04500  Uani   1.00
H917   H     0.86916   0.41467   0.63249   0.05400  Uiso   1.00
C918   C     0.94180   0.44830   0.74070   0.04467  Uani   1.00
H919   H     0.97731   0.43691   0.76030   0.05400  Uiso   1.00
C920   C     0.01980   0.08840   0.54160   0.06567  Uani   1.00
H921   H     0.04466   0.12955   0.54246   0.09900  Uiso   1.00
H922   H     0.04305   0.05230   0.52452   0.09900  Uiso   1.00
H923   H     0.98211   0.09693   0.52188   0.09900  Uiso   1.00
C924   C     0.99490   0.99690   0.60620   0.07000  Uani   1.00
H925   H     0.96070   0.97998   0.58503   0.10500  Uiso   1.00
H926   H     0.03206   0.97150   0.59757   0.10500  Uiso   1.00
H927   H     0.98542   0.99121   0.64350   0.10500  Uiso   1.00
C928   C     0.83760   0.48170   0.68610   0.05400  Uani   1.00
H929   H     0.80124   0.49219   0.66743   0.06500  Uiso   1.00
C930   C     0.90050   0.49620   0.76000   0.04767  Uani   1.00
H931   H     0.90855   0.51708   0.79285   0.05700  Uiso   1.00
C932   C     0.84900   0.51360   0.73310   0.04733  Uani   1.00
C933   C     0.80480   0.56640   0.75390   0.06767  Uani   1.00
H934   H     0.77785   0.54589   0.78013   0.10100  Uiso   1.00
H935   H     0.82801   0.60321   0.77005   0.10100  Uiso   1.00
H936   H     0.78018   0.58412   0.72487   0.10100  Uiso   1.00
loop_
_atom_site_aniso_label
_atom_site_aniso_U_11
_atom_site_aniso_U_22
_atom_site_aniso_U_33
_atom_site_aniso_U_12
_atom_site_aniso_U_13
_atom_site_aniso_U_23
Cu1       0.02690   0.01980   0.01910  -0.00050  -0.00120   0.00250
Cu2       0.02210   0.02360   0.02060  -0.00060  -0.00160  -0.00090
Cu3       0.03360   0.03540   0.02400   0.00060   0.00690   0.00900
Cu4       0.02630   0.02970   0.03900  -0.00830  -0.00230  -0.00430
Cu5       0.03430   0.03360   0.03020  -0.00920  -0.01000   0.01610
Cu6       0.02440   0.01950   0.02230   0.00180   0.00300   0.00140
S7        0.02050   0.01900   0.01550  -0.00050  -0.00030   0.00160
S8        0.02270   0.01990   0.01740   0.00030   0.00260   0.00180
S9        0.01760   0.02110   0.02050  -0.00160  -0.00140  -0.00120
O10       0.02300   0.04100   0.03000   0.00300   0.00500   0.01200
O11       0.02900   0.03400   0.04600  -0.00500  -0.00300  -0.01700
O12       0.04600   0.06700   0.08900   0.01100   0.03000   0.05000
O15       0.03700   0.04700   0.02900   0.00100   0.00800   0.01700
O16       0.08700   0.05800   0.04300   0.01900  -0.00600  -0.00600
O18       0.02500   0.04200   0.05000  -0.00600   0.00000  -0.00600
O19       0.03800   0.04700   0.04100  -0.02100  -0.00700   0.01100
O20       0.06800   0.03600   0.04000  -0.01400  -0.00100   0.00200
O21       0.04000   0.04000   0.03000  -0.00200  -0.00500   0.01700
O22       0.02500   0.06400   0.05900  -0.00200   0.01100  -0.01700
O23       0.04300   0.03800   0.03200  -0.01500  -0.01000   0.01400
O24       0.05500   0.05900   0.04200  -0.02900  -0.01700   0.02200
O25       0.10700   0.04600   0.04900   0.01900  -0.01800  -0.00200
N26       0.02700   0.02700   0.01700  -0.00100   0.00000   0.00300
N27       0.02300   0.02800   0.01700  -0.00200  -0.00300   0.00400
N28       0.02600   0.02400   0.02900  -0.00500  -0.00200   0.00100
N29       0.02900   0.02800   0.02700  -0.00500  -0.00700   0.00400
N30       0.01900   0.02300   0.02400  -0.00100   0.00200  -0.00100
N31       0.02300   0.01700   0.02400  -0.00200   0.00200  -0.00400
N32       0.02800   0.06400   0.03000  -0.01300  -0.00800   0.00100
N33       0.04700   0.05000   0.05300   0.00100   0.00400  -0.00700
C34       0.15000   0.05700   0.09700   0.00200  -0.05200  -0.02500
C38       0.02600   0.02400   0.01700  -0.00400   0.00000   0.00600
C39       0.05300   0.07900   0.06200  -0.02000   0.00100  -0.01700
C43       0.02500   0.02000   0.02000  -0.00400  -0.00200  -0.00200
C44       0.03000   0.02600   0.02600  -0.00300   0.00700  -0.00100
C45       0.04100   0.02600   0.02600  -0.00700   0.00200   0.00900
C46       0.02900   0.03000   0.02400  -0.00400  -0.00300   0.00500
C47       0.02100   0.03400   0.03900  -0.00100   0.00700  -0.00400
C50       0.04200   0.03400   0.02900  -0.01100  -0.00200   0.01000
C51       0.06700   0.04000   0.04700   0.00900   0.00000  -0.00200
C53       0.04900   0.05300   0.03600  -0.02500  -0.01300   0.00400
C55       0.02700   0.02400   0.01900   0.00300   0.00100   0.00000
C56       0.04400   0.09200   0.06100  -0.02300   0.00600   0.02200
C60       0.03100   0.02100   0.02400  -0.00300  -0.00200   0.00100
C61       0.02000   0.03300   0.01700   0.00200   0.00500  -0.00100
C62       0.03500   0.01500   0.02900  -0.00600   0.00000  -0.00200
C63       0.02700   0.03000   0.02700   0.00000  -0.00200   0.00600
C66       0.02800   0.02900   0.03300   0.00100   0.00000  -0.00600
C68       0.02800   0.03400   0.04500   0.00300   0.01100   0.00200
C70       0.03000   0.02400   0.03400  -0.00400  -0.00300  -0.00100
C72       0.03700   0.02600   0.03700   0.00100  -0.00100  -0.00700
C74       0.02900   0.04000   0.03700  -0.00500   0.00300  -0.00300
C75       0.02800   0.04000   0.04300  -0.00200  -0.01200  -0.01100
C77       0.03200   0.03300   0.05100   0.01000   0.00800   0.00500
C79       0.02900   0.03000   0.04700   0.00200  -0.00100  -0.00200
C81       0.04500   0.03200   0.03300  -0.00200   0.00400  -0.00400
C83       0.02800   0.03600   0.03000   0.00500  -0.00300  -0.00100
C84       0.04000   0.02400   0.04200  -0.00200   0.00600  -0.00500
C85       0.03800   0.04200   0.05400   0.00800  -0.00200   0.00200
C89       0.05400   0.04500   0.05500   0.00800   0.01700  -0.00800
C93       0.03900   0.02300   0.03100  -0.00800   0.00100   0.01000
C96       0.03600   0.03200   0.02700  -0.00600  -0.01400   0.01000
C97       0.04800   0.06000   0.02700  -0.01500  -0.00900   0.00900
C99       0.04900   0.05100   0.03400  -0.01600   0.00100   0.00300
C101      0.06500   0.08700   0.04500  -0.00400  -0.00900  -0.00700
C105      0.07900   0.04200   0.08900   0.01000   0.00400  -0.01100
C109      0.03700   0.07900   0.04600  -0.02600  -0.01200   0.00800
C111      0.05700   0.05300   0.03300  -0.01300  -0.00800  -0.00800
C113      0.05100   0.05200   0.03900  -0.02200  -0.02300   0.01100
C114      0.07900   0.07200   0.05200  -0.04800  -0.02500   0.00300
Cu118     0.02690   0.01980   0.01910  -0.00050   0.00120  -0.00250
Cu119     0.02210   0.02360   0.02060  -0.00060   0.00160   0.00090
Cu120     0.03360   0.03540   0.02400   0.00060  -0.00690  -0.00900
Cu121     0.02630   0.02970   0.03900  -0.00830   0.00230   0.00430
Cu122     0.03430   0.03360   0.03020  -0.00920   0.01000  -0.01610
Cu123     0.02440   0.01950   0.02230   0.00180  -0.00300  -0.00140
S124      0.02050   0.01900   0.01550  -0.00050   0.00030  -0.00160
S125      0.02270   0.01990   0.01740   0.00030  -0.00260  -0.00180
S126      0.01760   0.02110   0.02050  -0.00160   0.00140   0.00120
O127      0.02300   0.04100   0.03000   0.00300  -0.00500  -0.01200
O128      0.02900   0.03400   0.04600  -0.00500   0.00300   0.01700
O129      0.04600   0.06700   0.08900   0.01100  -0.03000  -0.05000
O132      0.03700   0.04700   0.02900   0.00100  -0.00800  -0.01700
O133      0.08700   0.05800   0.04300   0.01900   0.00600   0.00600
O135      0.02500   0.04200   0.05000  -0.00600   0.00000   0.00600
O136      0.03800   0.04700   0.04100  -0.02100   0.00700  -0.01100
O137      0.06800   0.03600   0.04000  -0.01400   0.00100  -0.00200
O138      0.04000   0.04000   0.03000  -0.00200   0.00500  -0.01700
O139      0.02500   0.06400   0.05900  -0.00200  -0.01100   0.01700
O140      0.04300   0.03800   0.03200  -0.01500   0.01000  -0.01400
O141      0.05500   0.05900   0.04200  -0.02900   0.01700  -0.02200
O142      0.10700   0.04600   0.04900   0.01900   0.01800   0.00200
N143      0.02700   0.02700   0.01700  -0.00100   0.00000  -0.00300
N144      0.02300   0.02800   0.01700  -0.00200   0.00300  -0.00400
N145      0.02600   0.02400   0.02900  -0.00500   0.00200  -0.00100
N146      0.02900   0.02800   0.02700  -0.00500   0.00700  -0.00400
N147      0.01900   0.02300   0.02400  -0.00100  -0.00200   0.00100
N148      0.02300   0.01700   0.02400  -0.00200  -0.00200   0.00400
N149      0.02800   0.06400   0.03000  -0.01300   0.00800  -0.00100
N150      0.04700   0.05000   0.05300   0.00100  -0.00400   0.00700
C151      0.15000   0.05700   0.09700   0.00200   0.05200   0.02500
C155      0.02600   0.02400   0.01700  -0.00400   0.00000  -0.00600
C156      0.05300   0.07900   0.06200  -0.02000  -0.00100   0.01700
C160      0.02500   0.02000   0.02000  -0.00400   0.00200   0.00200
C161      0.03000   0.02600   0.02600  -0.00300  -0.00700   0.00100
C162      0.04100   0.02600   0.02600  -0.00700  -0.00200  -0.00900
C163      0.02900   0.03000   0.02400  -0.00400   0.00300  -0.00500
C164      0.02100   0.03400   0.03900  -0.00100  -0.00700   0.00400
C167      0.04200   0.03400   0.02900  -0.01100   0.00200  -0.01000
C168      0.06700   0.04000   0.04700   0.00900   0.00000   0.00200
C170      0.04900   0.05300   0.03600  -0.02500   0.01300  -0.00400
C172      0.02700   0.02400   0.01900   0.00300  -0.00100   0.00000
C173      0.04400   0.09200   0.06100  -0.02300  -0.00600  -0.02200
C177      0.03100   0.02100   0.02400  -0.00300   0.00200  -0.00100
C178      0.02000   0.03300   0.01700   0.00200  -0.00500   0.00100
C179      0.03500   0.01500   0.02900  -0.00600   0.00000   0.00200
C180      0.02700   0.03000   0.02700   0.00000   0.00200  -0.00600
C183      0.02800   0.02900   0.03300   0.00100   0.00000   0.00600
C185      0.02800   0.03400   0.04500   0.00300  -0.01100  -0.00200
C187      0.03000   0.02400   0.03400  -0.00400   0.00300   0.00100
C189      0.03700   0.02600   0.03700   0.00100   0.00100   0.00700
C191      0.02900   0.04000   0.03700  -0.00500  -0.00300   0.00300
C192      0.02800   0.04000   0.04300  -0.00200   0.01200   0.01100
C194      0.03200   0.03300   0.05100   0.01000  -0.00800  -0.00500
C196      0.02900   0.03000   0.04700   0.00200   0.00100   0.00200
C198      0.04500   0.03200   0.03300  -0.00200  -0.00400   0.00400
C200      0.02800   0.03600   0.03000   0.00500   0.00300   0.00100
C201      0.04000   0.02400   0.04200  -0.00200  -0.00600   0.00500
C202      0.03800   0.04200   0.05400   0.00800   0.00200  -0.00200
C206      0.05400   0.04500   0.05500   0.00800  -0.01700   0.00800
C210      0.03900   0.02300   0.03100  -0.00800  -0.00100  -0.01000
C213      0.03600   0.03200   0.02700  -0.00600   0.01400  -0.01000
C214      0.04800   0.06000   0.02700  -0.01500   0.00900  -0.00900
C216      0.04900   0.05100   0.03400  -0.01600  -0.00100  -0.00300
C218      0.06500   0.08700   0.04500  -0.00400   0.00900   0.00700
C222      0.07900   0.04200   0.08900   0.01000  -0.00400   0.01100
C226      0.03700   0.07900   0.04600  -0.02600   0.01200  -0.00800
C228      0.05700   0.05300   0.03300  -0.01300   0.00800   0.00800
C230      0.05100   0.05200   0.03900  -0.02200   0.02300  -0.01100
C231      0.07900   0.07200   0.05200  -0.04800   0.02500  -0.00300
Cu235     0.02690   0.01980   0.01910   0.00050  -0.00120  -0.00250
Cu236     0.02210   0.02360   0.02060   0.00060  -0.00160   0.00090
Cu237     0.03360   0.03540   0.02400  -0.00060   0.00690  -0.00900
Cu238     0.02630   0.02970   0.03900   0.00830  -0.00230   0.00430
Cu239     0.03430   0.03360   0.03020   0.00920  -0.01000  -0.01610
Cu240     0.02440   0.01950   0.02230  -0.00180   0.00300  -0.00140
S241      0.02050   0.01900   0.01550   0.00050  -0.00030  -0.00160
S242      0.02270   0.01990   0.01740  -0.00030   0.00260  -0.00180
S243      0.01760   0.02110   0.02050   0.00160  -0.00140   0.00120
O244      0.02300   0.04100   0.03000  -0.00300   0.00500  -0.01200
O245      0.02900   0.03400   0.04600   0.00500  -0.00300   0.01700
O246      0.04600   0.06700   0.08900  -0.01100   0.03000  -0.05000
O249      0.03700   0.04700   0.02900  -0.00100   0.00800  -0.01700
O250      0.08700   0.05800   0.04300  -0.01900  -0.00600   0.00600
O252      0.02500   0.04200   0.05000   0.00600   0.00000   0.00600
O253      0.03800   0.04700   0.04100   0.02100  -0.00700  -0.01100
O254      0.06800   0.03600   0.04000   0.01400  -0.00100  -0.00200
O255      0.04000   0.04000   0.03000   0.00200  -0.00500  -0.01700
O256      0.02500   0.06400   0.05900   0.00200   0.01100   0.01700
O257      0.04300   0.03800   0.03200   0.01500  -0.01000  -0.01400
O258      0.05500   0.05900   0.04200   0.02900  -0.01700  -0.02200
O259      0.10700   0.04600   0.04900  -0.01900  -0.01800   0.00200
N260      0.02700   0.02700   0.01700   0.00100   0.00000  -0.00300
N261      0.02300   0.02800   0.01700   0.00200  -0.00300  -0.00400
N262      0.02600   0.02400   0.02900   0.00500  -0.00200  -0.00100
N263      0.02900   0.02800   0.02700   0.00500  -0.00700  -0.00400
N264      0.01900   0.02300   0.02400   0.00100   0.00200   0.00100
N265      0.02300   0.01700   0.02400   0.00200   0.00200   0.00400
N266      0.02800   0.06400   0.03000   0.01300  -0.00800  -0.00100
N267      0.04700   0.05000   0.05300  -0.00100   0.00400   0.00700
C268      0.15000   0.05700   0.09700  -0.00200  -0.05200   0.02500
C272      0.02600   0.02400   0.01700   0.00400   0.00000  -0.00600
C273      0.05300   0.07900   0.06200   0.02000   0.00100   0.01700
C277      0.02500   0.02000   0.02000   0.00400  -0.00200   0.00200
C278      0.03000   0.02600   0.02600   0.00300   0.00700   0.00100
C279      0.04100   0.02600   0.02600   0.00700   0.00200  -0.00900
C280      0.02900   0.03000   0.02400   0.00400  -0.00300  -0.00500
C281      0.02100   0.03400   0.03900   0.00100   0.00700   0.00400
C284      0.04200   0.03400   0.02900   0.01100  -0.00200  -0.01000
C285      0.06700   0.04000   0.04700  -0.00900   0.00000   0.00200
C287      0.04900   0.05300   0.03600   0.02500  -0.01300  -0.00400
C289      0.02700   0.02400   0.01900  -0.00300   0.00100   0.00000
C290      0.04400   0.09200   0.06100   0.02300   0.00600  -0.02200
C294      0.03100   0.02100   0.02400   0.00300  -0.00200  -0.00100
C295      0.02000   0.03300   0.01700  -0.00200   0.00500   0.00100
C296      0.03500   0.01500   0.02900   0.00600   0.00000   0.00200
C297      0.02700   0.03000   0.02700   0.00000  -0.00200  -0.00600
C300      0.02800   0.02900   0.03300  -0.00100   0.00000   0.00600
C302      0.02800   0.03400   0.04500  -0.00300   0.01100  -0.00200
C304      0.03000   0.02400   0.03400   0.00400  -0.00300   0.00100
C306      0.03700   0.02600   0.03700  -0.00100  -0.00100   0.00700
C308      0.02900   0.04000   0.03700   0.00500   0.00300   0.00300
C309      0.02800   0.04000   0.04300   0.00200  -0.01200   0.01100
C311      0.03200   0.03300   0.05100  -0.01000   0.00800  -0.00500
C313      0.02900   0.03000   0.04700  -0.00200  -0.00100   0.00200
C315      0.04500   0.03200   0.03300   0.00200   0.00400   0.00400
C317      0.02800   0.03600   0.03000  -0.00500  -0.00300   0.00100
C318      0.04000   0.02400   0.04200   0.00200   0.00600   0.00500
C319      0.03800   0.04200   0.05400  -0.00800  -0.00200  -0.00200
C323      0.05400   0.04500   0.05500  -0.00800   0.01700   0.00800
C327      0.03900   0.02300   0.03100   0.00800   0.00100  -0.01000
C330      0.03600   0.03200   0.02700   0.00600  -0.01400  -0.01000
C331      0.04800   0.06000   0.02700   0.01500  -0.00900  -0.00900
C333      0.04900   0.05100   0.03400   0.01600   0.00100  -0.00300
C335      0.06500   0.08700   0.04500   0.00400  -0.00900   0.00700
C339      0.07900   0.04200   0.08900  -0.01000   0.00400   0.01100
C343      0.03700   0.07900   0.04600   0.02600  -0.01200  -0.00800
C345      0.05700   0.05300   0.03300   0.01300  -0.00800   0.00800
C347      0.05100   0.05200   0.03900   0.02200  -0.02300  -0.01100
C348      0.07900   0.07200   0.05200   0.04800  -0.02500  -0.00300
Cu352     0.02690   0.01980   0.01910   0.00050   0.00120   0.00250
Cu353     0.02210   0.02360   0.02060   0.00060   0.00160  -0.00090
Cu354     0.03360   0.03540   0.02400  -0.00060  -0.00690   0.00900
Cu355     0.02630   0.02970   0.03900   0.00830   0.00230  -0.00430
Cu356     0.03430   0.03360   0.03020   0.00920   0.01000   0.01610
Cu357     0.02440   0.01950   0.02230  -0.00180  -0.00300   0.00140
S358      0.02050   0.01900   0.01550   0.00050   0.00030   0.00160
S359      0.02270   0.01990   0.01740  -0.00030  -0.00260   0.00180
S360      0.01760   0.02110   0.02050   0.00160   0.00140  -0.00120
O361      0.02300   0.04100   0.03000  -0.00300  -0.00500   0.01200
O362      0.02900   0.03400   0.04600   0.00500   0.00300  -0.01700
O363      0.04600   0.06700   0.08900  -0.01100  -0.03000   0.05000
O366      0.03700   0.04700   0.02900  -0.00100  -0.00800   0.01700
O367      0.08700   0.05800   0.04300  -0.01900   0.00600  -0.00600
O369      0.02500   0.04200   0.05000   0.00600   0.00000  -0.00600
O370      0.03800   0.04700   0.04100   0.02100   0.00700   0.01100
O371      0.06800   0.03600   0.04000   0.01400   0.00100   0.00200
O372      0.04000   0.04000   0.03000   0.00200   0.00500   0.01700
O373      0.02500   0.06400   0.05900   0.00200  -0.01100  -0.01700
O374      0.04300   0.03800   0.03200   0.01500   0.01000   0.01400
O375      0.05500   0.05900   0.04200   0.02900   0.01700   0.02200
O376      0.10700   0.04600   0.04900  -0.01900   0.01800  -0.00200
N377      0.02700   0.02700   0.01700   0.00100   0.00000   0.00300
N378      0.02300   0.02800   0.01700   0.00200   0.00300   0.00400
N379      0.02600   0.02400   0.02900   0.00500   0.00200   0.00100
N380      0.02900   0.02800   0.02700   0.00500   0.00700   0.00400
N381      0.01900   0.02300   0.02400   0.00100  -0.00200  -0.00100
N382      0.02300   0.01700   0.02400   0.00200  -0.00200  -0.00400
N383      0.02800   0.06400   0.03000   0.01300   0.00800   0.00100
N384      0.04700   0.05000   0.05300  -0.00100  -0.00400  -0.00700
C385      0.15000   0.05700   0.09700  -0.00200   0.05200  -0.02500
C389      0.02600   0.02400   0.01700   0.00400   0.00000   0.00600
C390      0.05300   0.07900   0.06200   0.02000  -0.00100  -0.01700
C394      0.02500   0.02000   0.02000   0.00400   0.00200  -0.00200
C395      0.03000   0.02600   0.02600   0.00300  -0.00700  -0.00100
C396      0.04100   0.02600   0.02600   0.00700  -0.00200   0.00900
C397      0.02900   0.03000   0.02400   0.00400   0.00300   0.00500
C398      0.02100   0.03400   0.03900   0.00100  -0.00700  -0.00400
C401      0.04200   0.03400   0.02900   0.01100   0.00200   0.01000
C402      0.06700   0.04000   0.04700  -0.00900   0.00000  -0.00200
C404      0.04900   0.05300   0.03600   0.02500   0.01300   0.00400
C406      0.02700   0.02400   0.01900  -0.00300  -0.00100   0.00000
C407      0.04400   0.09200   0.06100   0.02300  -0.00600   0.02200
C411      0.03100   0.02100   0.02400   0.00300   0.00200   0.00100
C412      0.02000   0.03300   0.01700  -0.00200  -0.00500  -0.00100
C413      0.03500   0.01500   0.02900   0.00600   0.00000  -0.00200
C414      0.02700   0.03000   0.02700   0.00000   0.00200   0.00600
C417      0.02800   0.02900   0.03300  -0.00100   0.00000  -0.00600
C419      0.02800   0.03400   0.04500  -0.00300  -0.01100   0.00200
C421      0.03000   0.02400   0.03400   0.00400   0.00300  -0.00100
C423      0.03700   0.02600   0.03700  -0.00100   0.00100  -0.00700
C425      0.02900   0.04000   0.03700   0.00500  -0.00300  -0.00300
C426      0.02800   0.04000   0.04300   0.00200   0.01200  -0.01100
C428      0.03200   0.03300   0.05100  -0.01000  -0.00800   0.00500
C430      0.02900   0.03000   0.04700  -0.00200   0.00100  -0.00200
C432      0.04500   0.03200   0.03300   0.00200  -0.00400  -0.00400
C434      0.02800   0.03600   0.03000  -0.00500   0.00300  -0.00100
C435      0.04000   0.02400   0.04200   0.00200  -0.00600  -0.00500
C436      0.03800   0.04200   0.05400  -0.00800   0.00200   0.00200
C440      0.05400   0.04500   0.05500  -0.00800  -0.01700  -0.00800
C444      0.03900   0.02300   0.03100   0.00800  -0.00100   0.01000
C447      0.03600   0.03200   0.02700   0.00600   0.01400   0.01000
C448      0.04800   0.06000   0.02700   0.01500   0.00900   0.00900
C450      0.04900   0.05100   0.03400   0.01600  -0.00100   0.00300
C452      0.06500   0.08700   0.04500   0.00400   0.00900  -0.00700
C456      0.07900   0.04200   0.08900  -0.01000  -0.00400  -0.01100
C460      0.03700   0.07900   0.04600   0.02600   0.01200   0.00800
C462      0.05700   0.05300   0.03300   0.01300   0.00800  -0.00800
C464      0.05100   0.05200   0.03900   0.02200   0.02300   0.01100
C465      0.07900   0.07200   0.05200   0.04800   0.02500   0.00300
Cu469     0.02690   0.01980   0.01910  -0.00050  -0.00120   0.00250
Cu470     0.02210   0.02360   0.02060  -0.00060  -0.00160  -0.00090
Cu471     0.03360   0.03540   0.02400   0.00060   0.00690   0.00900
Cu472     0.02630   0.02970   0.03900  -0.00830  -0.00230  -0.00430
Cu473     0.03430   0.03360   0.03020  -0.00920  -0.01000   0.01610
Cu474     0.02440   0.01950   0.02230   0.00180   0.00300   0.00140
S475      0.02050   0.01900   0.01550  -0.00050  -0.00030   0.00160
S476      0.02270   0.01990   0.01740   0.00030   0.00260   0.00180
S477      0.01760   0.02110   0.02050  -0.00160  -0.00140  -0.00120
O478      0.02300   0.04100   0.03000   0.00300   0.00500   0.01200
O479      0.02900   0.03400   0.04600  -0.00500  -0.00300  -0.01700
O480      0.04600   0.06700   0.08900   0.01100   0.03000   0.05000
O483      0.03700   0.04700   0.02900   0.00100   0.00800   0.01700
O484      0.08700   0.05800   0.04300   0.01900  -0.00600  -0.00600
O486      0.02500   0.04200   0.05000  -0.00600   0.00000  -0.00600
O487      0.03800   0.04700   0.04100  -0.02100  -0.00700   0.01100
O488      0.06800   0.03600   0.04000  -0.01400  -0.00100   0.00200
O489      0.04000   0.04000   0.03000  -0.00200  -0.00500   0.01700
O490      0.02500   0.06400   0.05900  -0.00200   0.01100  -0.01700
O491      0.04300   0.03800   0.03200  -0.01500  -0.01000   0.01400
O492      0.05500   0.05900   0.04200  -0.02900  -0.01700   0.02200
O493      0.10700   0.04600   0.04900   0.01900  -0.01800  -0.00200
N494      0.02700   0.02700   0.01700  -0.00100   0.00000   0.00300
N495      0.02300   0.02800   0.01700  -0.00200  -0.00300   0.00400
N496      0.02600   0.02400   0.02900  -0.00500  -0.00200   0.00100
N497      0.02900   0.02800   0.02700  -0.00500  -0.00700   0.00400
N498      0.01900   0.02300   0.02400  -0.00100   0.00200  -0.00100
N499      0.02300   0.01700   0.02400  -0.00200   0.00200  -0.00400
N500      0.02800   0.06400   0.03000  -0.01300  -0.00800   0.00100
N501      0.04700   0.05000   0.05300   0.00100   0.00400  -0.00700
C502      0.15000   0.05700   0.09700   0.00200  -0.05200  -0.02500
C506      0.02600   0.02400   0.01700  -0.00400   0.00000   0.00600
C507      0.05300   0.07900   0.06200  -0.02000   0.00100  -0.01700
C511      0.02500   0.02000   0.02000  -0.00400  -0.00200  -0.00200
C512      0.03000   0.02600   0.02600  -0.00300   0.00700  -0.00100
C513      0.04100   0.02600   0.02600  -0.00700   0.00200   0.00900
C514      0.02900   0.03000   0.02400  -0.00400  -0.00300   0.00500
C515      0.02100   0.03400   0.03900  -0.00100   0.00700  -0.00400
C518      0.04200   0.03400   0.02900  -0.01100  -0.00200   0.01000
C519      0.06700   0.04000   0.04700   0.00900   0.00000  -0.00200
C521      0.04900   0.05300   0.03600  -0.02500  -0.01300   0.00400
C523      0.02700   0.02400   0.01900   0.00300   0.00100   0.00000
C524      0.04400   0.09200   0.06100  -0.02300   0.00600   0.02200
C528      0.03100   0.02100   0.02400  -0.00300  -0.00200   0.00100
C529      0.02000   0.03300   0.01700   0.00200   0.00500  -0.00100
C530      0.03500   0.01500   0.02900  -0.00600   0.00000  -0.00200
C531      0.02700   0.03000   0.02700   0.00000  -0.00200   0.00600
C534      0.02800   0.02900   0.03300   0.00100   0.00000  -0.00600
C536      0.02800   0.03400   0.04500   0.00300   0.01100   0.00200
C538      0.03000   0.02400   0.03400  -0.00400  -0.00300  -0.00100
C540      0.03700   0.02600   0.03700   0.00100  -0.00100  -0.00700
C542      0.02900   0.04000   0.03700  -0.00500   0.00300  -0.00300
C543      0.02800   0.04000   0.04300  -0.00200  -0.01200  -0.01100
C545      0.03200   0.03300   0.05100   0.01000   0.00800   0.00500
C547      0.02900   0.03000   0.04700   0.00200  -0.00100  -0.00200
C549      0.04500   0.03200   0.03300  -0.00200   0.00400  -0.00400
C551      0.02800   0.03600   0.03000   0.00500  -0.00300  -0.00100
C552      0.04000   0.02400   0.04200  -0.00200   0.00600  -0.00500
C553      0.03800   0.04200   0.05400   0.00800  -0.00200   0.00200
C557      0.05400   0.04500   0.05500   0.00800   0.01700  -0.00800
C561      0.03900   0.02300   0.03100  -0.00800   0.00100   0.01000
C564      0.03600   0.03200   0.02700  -0.00600  -0.01400   0.01000
C565      0.04800   0.06000   0.02700  -0.01500  -0.00900   0.00900
C567      0.04900   0.05100   0.03400  -0.01600   0.00100   0.00300
C569      0.06500   0.08700   0.04500  -0.00400  -0.00900  -0.00700
C573      0.07900   0.04200   0.08900   0.01000   0.00400  -0.01100
C577      0.03700   0.07900   0.04600  -0.02600  -0.01200   0.00800
C579      0.05700   0.05300   0.03300  -0.01300  -0.00800  -0.00800
C581      0.05100   0.05200   0.03900  -0.02200  -0.02300   0.01100
C582      0.07900   0.07200   0.05200  -0.04800  -0.02500   0.00300
Cu586     0.02690   0.01980   0.01910  -0.00050   0.00120  -0.00250
Cu587     0.02210   0.02360   0.02060  -0.00060   0.00160   0.00090
Cu588     0.03360   0.03540   0.02400   0.00060  -0.00690  -0.00900
Cu589     0.02630   0.02970   0.03900  -0.00830   0.00230   0.00430
Cu590     0.03430   0.03360   0.03020  -0.00920   0.01000  -0.01610
Cu591     0.02440   0.01950   0.02230   0.00180  -0.00300  -0.00140
S592      0.02050   0.01900   0.01550  -0.00050   0.00030  -0.00160
S593      0.02270   0.01990   0.01740   0.00030  -0.00260  -0.00180
S594      0.01760   0.02110   0.02050  -0.00160   0.00140   0.00120
O595      0.02300   0.04100   0.03000   0.00300  -0.00500  -0.01200
O596      0.02900   0.03400   0.04600  -0.00500   0.00300   0.01700
O597      0.04600   0.06700   0.08900   0.01100  -0.03000  -0.05000
O600      0.03700   0.04700   0.02900   0.00100  -0.00800  -0.01700
O601      0.08700   0.05800   0.04300   0.01900   0.00600   0.00600
O603      0.02500   0.04200   0.05000  -0.00600   0.00000   0.00600
O604      0.03800   0.04700   0.04100  -0.02100   0.00700  -0.01100
O605      0.06800   0.03600   0.04000  -0.01400   0.00100  -0.00200
O606      0.04000   0.04000   0.03000  -0.00200   0.00500  -0.01700
O607      0.02500   0.06400   0.05900  -0.00200  -0.01100   0.01700
O608      0.04300   0.03800   0.03200  -0.01500   0.01000  -0.01400
O609      0.05500   0.05900   0.04200  -0.02900   0.01700  -0.02200
O610      0.10700   0.04600   0.04900   0.01900   0.01800   0.00200
N611      0.02700   0.02700   0.01700  -0.00100   0.00000  -0.00300
N612      0.02300   0.02800   0.01700  -0.00200   0.00300  -0.00400
N613      0.02600   0.02400   0.02900  -0.00500   0.00200  -0.00100
N614      0.02900   0.02800   0.02700  -0.00500   0.00700  -0.00400
N615      0.01900   0.02300   0.02400  -0.00100  -0.00200   0.00100
N616      0.02300   0.01700   0.02400  -0.00200  -0.00200   0.00400
N617      0.02800   0.06400   0.03000  -0.01300   0.00800  -0.00100
N618      0.04700   0.05000   0.05300   0.00100  -0.00400   0.00700
C619      0.15000   0.05700   0.09700   0.00200   0.05200   0.02500
C623      0.02600   0.02400   0.01700  -0.00400   0.00000  -0.00600
C624      0.05300   0.07900   0.06200  -0.02000  -0.00100   0.01700
C628      0.02500   0.02000   0.02000  -0.00400   0.00200   0.00200
C629      0.03000   0.02600   0.02600  -0.00300  -0.00700   0.00100
C630      0.04100   0.02600   0.02600  -0.00700  -0.00200  -0.00900
C631      0.02900   0.03000   0.02400  -0.00400   0.00300  -0.00500
C632      0.02100   0.03400   0.03900  -0.00100  -0.00700   0.00400
C635      0.04200   0.03400   0.02900  -0.01100   0.00200  -0.01000
C636      0.06700   0.04000   0.04700   0.00900   0.00000   0.00200
C638      0.04900   0.05300   0.03600  -0.02500   0.01300  -0.00400
C640      0.02700   0.02400   0.01900   0.00300  -0.00100   0.00000
C641      0.04400   0.09200   0.06100  -0.02300  -0.00600  -0.02200
C645      0.03100   0.02100   0.02400  -0.00300   0.00200  -0.00100
C646      0.02000   0.03300   0.01700   0.00200  -0.00500   0.00100
C647      0.03500   0.01500   0.02900  -0.00600   0.00000   0.00200
C648      0.02700   0.03000   0.02700   0.00000   0.00200  -0.00600
C651      0.02800   0.02900   0.03300   0.00100   0.00000   0.00600
C653      0.02800   0.03400   0.04500   0.00300  -0.01100  -0.00200
C655      0.03000   0.02400   0.03400  -0.00400   0.00300   0.00100
C657      0.03700   0.02600   0.03700   0.00100   0.00100   0.00700
C659      0.02900   0.04000   0.03700  -0.00500  -0.00300   0.00300
C660      0.02800   0.04000   0.04300  -0.00200   0.01200   0.01100
C662      0.03200   0.03300   0.05100   0.01000  -0.00800  -0.00500
C664      0.02900   0.03000   0.04700   0.00200   0.00100   0.00200
C666      0.04500   0.03200   0.03300  -0.00200  -0.00400   0.00400
C668      0.02800   0.03600   0.03000   0.00500   0.00300   0.00100
C669      0.04000   0.02400   0.04200  -0.00200  -0.00600   0.00500
C670      0.03800   0.04200   0.05400   0.00800   0.00200  -0.00200
C674      0.05400   0.04500   0.05500   0.00800  -0.01700   0.00800
C678      0.03900   0.02300   0.03100  -0.00800  -0.00100  -0.01000
C681      0.03600   0.03200   0.02700  -0.00600   0.01400  -0.01000
C682      0.04800   0.06000   0.02700  -0.01500   0.00900  -0.00900
C684      0.04900   0.05100   0.03400  -0.01600  -0.00100  -0.00300
C686      0.06500   0.08700   0.04500  -0.00400   0.00900   0.00700
C690      0.07900   0.04200   0.08900   0.01000  -0.00400   0.01100
C694      0.03700   0.07900   0.04600  -0.02600   0.01200  -0.00800
C696      0.05700   0.05300   0.03300  -0.01300   0.00800   0.00800
C698      0.05100   0.05200   0.03900  -0.02200   0.02300  -0.01100
C699      0.07900   0.07200   0.05200  -0.04800   0.02500  -0.00300
Cu703     0.02690   0.01980   0.01910   0.00050  -0.00120  -0.00250
Cu704     0.02210   0.02360   0.02060   0.00060  -0.00160   0.00090
Cu705     0.03360   0.03540   0.02400  -0.00060   0.00690  -0.00900
Cu706     0.02630   0.02970   0.03900   0.00830  -0.00230   0.00430
Cu707     0.03430   0.03360   0.03020   0.00920  -0.01000  -0.01610
Cu708     0.02440   0.01950   0.02230  -0.00180   0.00300  -0.00140
S709      0.02050   0.01900   0.01550   0.00050  -0.00030  -0.00160
S710      0.02270   0.01990   0.01740  -0.00030   0.00260  -0.00180
S711      0.01760   0.02110   0.02050   0.00160  -0.00140   0.00120
O712      0.02300   0.04100   0.03000  -0.00300   0.00500  -0.01200
O713      0.02900   0.03400   0.04600   0.00500  -0.00300   0.01700
O714      0.04600   0.06700   0.08900  -0.01100   0.03000  -0.05000
O717      0.03700   0.04700   0.02900  -0.00100   0.00800  -0.01700
O718      0.08700   0.05800   0.04300  -0.01900  -0.00600   0.00600
O720      0.02500   0.04200   0.05000   0.00600   0.00000   0.00600
O721      0.03800   0.04700   0.04100   0.02100  -0.00700  -0.01100
O722      0.06800   0.03600   0.04000   0.01400  -0.00100  -0.00200
O723      0.04000   0.04000   0.03000   0.00200  -0.00500  -0.01700
O724      0.02500   0.06400   0.05900   0.00200   0.01100   0.01700
O725      0.04300   0.03800   0.03200   0.01500  -0.01000  -0.01400
O726      0.05500   0.05900   0.04200   0.02900  -0.01700  -0.02200
O727      0.10700   0.04600   0.04900  -0.01900  -0.01800   0.00200
N728      0.02700   0.02700   0.01700   0.00100   0.00000  -0.00300
N729      0.02300   0.02800   0.01700   0.00200  -0.00300  -0.00400
N730      0.02600   0.02400   0.02900   0.00500  -0.00200  -0.00100
N731      0.02900   0.02800   0.02700   0.00500  -0.00700  -0.00400
N732      0.01900   0.02300   0.02400   0.00100   0.00200   0.00100
N733      0.02300   0.01700   0.02400   0.00200   0.00200   0.00400
N734      0.02800   0.06400   0.03000   0.01300  -0.00800  -0.00100
N735      0.04700   0.05000   0.05300  -0.00100   0.00400   0.00700
C736      0.15000   0.05700   0.09700  -0.00200  -0.05200   0.02500
C740      0.02600   0.02400   0.01700   0.00400   0.00000  -0.00600
C741      0.05300   0.07900   0.06200   0.02000   0.00100   0.01700
C745      0.02500   0.02000   0.02000   0.00400  -0.00200   0.00200
C746      0.03000   0.02600   0.02600   0.00300   0.00700   0.00100
C747      0.04100   0.02600   0.02600   0.00700   0.00200  -0.00900
C748      0.02900   0.03000   0.02400   0.00400  -0.00300  -0.00500
C749      0.02100   0.03400   0.03900   0.00100   0.00700   0.00400
C752      0.04200   0.03400   0.02900   0.01100  -0.00200  -0.01000
C753      0.06700   0.04000   0.04700  -0.00900   0.00000   0.00200
C755      0.04900   0.05300   0.03600   0.02500  -0.01300  -0.00400
C757      0.02700   0.02400   0.01900  -0.00300   0.00100   0.00000
C758      0.04400   0.09200   0.06100   0.02300   0.00600  -0.02200
C762      0.03100   0.02100   0.02400   0.00300  -0.00200  -0.00100
C763      0.02000   0.03300   0.01700  -0.00200   0.00500   0.00100
C764      0.03500   0.01500   0.02900   0.00600   0.00000   0.00200
C765      0.02700   0.03000   0.02700   0.00000  -0.00200  -0.00600
C768      0.02800   0.02900   0.03300  -0.00100   0.00000   0.00600
C770      0.02800   0.03400   0.04500  -0.00300   0.01100  -0.00200
C772      0.03000   0.02400   0.03400   0.00400  -0.00300   0.00100
C774      0.03700   0.02600   0.03700  -0.00100  -0.00100   0.00700
C776      0.02900   0.04000   0.03700   0.00500   0.00300   0.00300
C777      0.02800   0.04000   0.04300   0.00200  -0.01200   0.01100
C779      0.03200   0.03300   0.05100  -0.01000   0.00800  -0.00500
C781      0.02900   0.03000   0.04700  -0.00200  -0.00100   0.00200
C783      0.04500   0.03200   0.03300   0.00200   0.00400   0.00400
C785      0.02800   0.03600   0.03000  -0.00500  -0.00300   0.00100
C786      0.04000   0.02400   0.04200   0.00200   0.00600   0.00500
C787      0.03800   0.04200   0.05400  -0.00800  -0.00200  -0.00200
C791      0.05400   0.04500   0.05500  -0.00800   0.01700   0.00800
C795      0.03900   0.02300   0.03100   0.00800   0.00100  -0.01000
C798      0.03600   0.03200   0.02700   0.00600  -0.01400  -0.01000
C799      0.04800   0.06000   0.02700   0.01500  -0.00900  -0.00900
C801      0.04900   0.05100   0.03400   0.01600   0.00100  -0.00300
C803      0.06500   0.08700   0.04500   0.00400  -0.00900   0.00700
C807      0.07900   0.04200   0.08900  -0.01000   0.00400   0.01100
C811      0.03700   0.07900   0.04600   0.02600  -0.01200  -0.00800
C813      0.05700   0.05300   0.03300   0.01300  -0.00800   0.00800
C815      0.05100   0.05200   0.03900   0.02200  -0.02300  -0.01100
C816      0.07900   0.07200   0.05200   0.04800  -0.02500  -0.00300
Cu820     0.02690   0.01980   0.01910   0.00050   0.00120   0.00250
Cu821     0.02210   0.02360   0.02060   0.00060   0.00160  -0.00090
Cu822     0.03360   0.03540   0.02400  -0.00060  -0.00690   0.00900
Cu823     0.02630   0.02970   0.03900   0.00830   0.00230  -0.00430
Cu824     0.03430   0.03360   0.03020   0.00920   0.01000   0.01610
Cu825     0.02440   0.01950   0.02230  -0.00180  -0.00300   0.00140
S826      0.02050   0.01900   0.01550   0.00050   0.00030   0.00160
S827      0.02270   0.01990   0.01740  -0.00030  -0.00260   0.00180
S828      0.01760   0.02110   0.02050   0.00160   0.00140  -0.00120
O829      0.02300   0.04100   0.03000  -0.00300  -0.00500   0.01200
O830      0.02900   0.03400   0.04600   0.00500   0.00300  -0.01700
O831      0.04600   0.06700   0.08900  -0.01100  -0.03000   0.05000
O834      0.03700   0.04700   0.02900  -0.00100  -0.00800   0.01700
O835      0.08700   0.05800   0.04300  -0.01900   0.00600  -0.00600
O837      0.02500   0.04200   0.05000   0.00600   0.00000  -0.00600
O838      0.03800   0.04700   0.04100   0.02100   0.00700   0.01100
O839      0.06800   0.03600   0.04000   0.01400   0.00100   0.00200
O840      0.04000   0.04000   0.03000   0.00200   0.00500   0.01700
O841      0.02500   0.06400   0.05900   0.00200  -0.01100  -0.01700
O842      0.04300   0.03800   0.03200   0.01500   0.01000   0.01400
O843      0.05500   0.05900   0.04200   0.02900   0.01700   0.02200
O844      0.10700   0.04600   0.04900  -0.01900   0.01800  -0.00200
N845      0.02700   0.02700   0.01700   0.00100   0.00000   0.00300
N846      0.02300   0.02800   0.01700   0.00200   0.00300   0.00400
N847      0.02600   0.02400   0.02900   0.00500   0.00200   0.00100
N848      0.02900   0.02800   0.02700   0.00500   0.00700   0.00400
N849      0.01900   0.02300   0.02400   0.00100  -0.00200  -0.00100
N850      0.02300   0.01700   0.02400   0.00200  -0.00200  -0.00400
N851      0.02800   0.06400   0.03000   0.01300   0.00800   0.00100
N852      0.04700   0.05000   0.05300  -0.00100  -0.00400  -0.00700
C853      0.15000   0.05700   0.09700  -0.00200   0.05200  -0.02500
C857      0.02600   0.02400   0.01700   0.00400   0.00000   0.00600
C858      0.05300   0.07900   0.06200   0.02000  -0.00100  -0.01700
C862      0.02500   0.02000   0.02000   0.00400   0.00200  -0.00200
C863      0.03000   0.02600   0.02600   0.00300  -0.00700  -0.00100
C864      0.04100   0.02600   0.02600   0.00700  -0.00200   0.00900
C865      0.02900   0.03000   0.02400   0.00400   0.00300   0.00500
C866      0.02100   0.03400   0.03900   0.00100  -0.00700  -0.00400
C869      0.04200   0.03400   0.02900   0.01100   0.00200   0.01000
C870      0.06700   0.04000   0.04700  -0.00900   0.00000  -0.00200
C872      0.04900   0.05300   0.03600   0.02500   0.01300   0.00400
C874      0.02700   0.02400   0.01900  -0.00300  -0.00100   0.00000
C875      0.04400   0.09200   0.06100   0.02300  -0.00600   0.02200
C879      0.03100   0.02100   0.02400   0.00300   0.00200   0.00100
C880      0.02000   0.03300   0.01700  -0.00200  -0.00500  -0.00100
C881      0.03500   0.01500   0.02900   0.00600   0.00000  -0.00200
C882      0.02700   0.03000   0.02700   0.00000   0.00200   0.00600
C885      0.02800   0.02900   0.03300  -0.00100   0.00000  -0.00600
C887      0.02800   0.03400   0.04500  -0.00300  -0.01100   0.00200
C889      0.03000   0.02400   0.03400   0.00400   0.00300  -0.00100
C891      0.03700   0.02600   0.03700  -0.00100   0.00100  -0.00700
C893      0.02900   0.04000   0.03700   0.00500  -0.00300  -0.00300
C894      0.02800   0.04000   0.04300   0.00200   0.01200  -0.01100
C896      0.03200   0.03300   0.05100  -0.01000  -0.00800   0.00500
C898      0.02900   0.03000   0.04700  -0.00200   0.00100  -0.00200
C900      0.04500   0.03200   0.03300   0.00200  -0.00400  -0.00400
C902      0.02800   0.03600   0.03000  -0.00500   0.00300  -0.00100
C903      0.04000   0.02400   0.04200   0.00200  -0.00600  -0.00500
C904      0.03800   0.04200   0.05400  -0.00800   0.00200   0.00200
C908      0.05400   0.04500   0.05500  -0.00800  -0.01700  -0.00800
C912      0.03900   0.02300   0.03100   0.00800  -0.00100   0.01000
C915      0.03600   0.03200   0.02700   0.00600   0.01400   0.01000
C916      0.04800   0.06000   0.02700   0.01500   0.00900   0.00900
C918      0.04900   0.05100   0.03400   0.01600  -0.00100   0.00300
C920      0.06500   0.08700   0.04500   0.00400   0.00900  -0.00700
C924      0.07900   0.04200   0.08900  -0.01000  -0.00400  -0.01100
C928      0.03700   0.07900   0.04600   0.02600   0.01200   0.00800
C930      0.05700   0.05300   0.03300   0.01300   0.00800  -0.00800
C932      0.05100   0.05200   0.03900   0.02200   0.02300   0.01100
C933      0.07900   0.07200   0.05200   0.04800   0.02500   0.00300
loop_
_geom_bond_atom_site_label_1
_geom_bond_atom_site_label_2
_geom_bond_distance
_geom_bond_site_symmetry_2
_ccdc_geom_bond_type
Cu1    S8      2.835   .     S
Cu1    N30     2.060   .     S
Cu1    S241    2.261   .     S
Cu1    S594    2.267   1_556 S
Cu2    S9      2.856   .     S
Cu2    N31     2.021   .     S
Cu2    S358    2.239   1_455 S
Cu2    S593    2.267   1_455 S
Cu3    O10     1.926   .     S
Cu3    O12     1.955   .     S
Cu3    O15     1.982   .     S
Cu3    O16     2.327   .     S
Cu3    N26     1.915   .     S
Cu4    O11     1.904   .     S
Cu4    O18     1.944   .     S
Cu4    O19     1.965   .     S
Cu4    O20     2.258   .     S
Cu4    N28     1.932   .     S
Cu5    O21     1.915   .     S
Cu5    O23     1.929   .     S
Cu5    O24     1.960   .     S
Cu5    O25     2.394   .     S
Cu5    N29     1.902   .     S
Cu6    S8      2.246   .     S
Cu6    S126    2.251   .     S
Cu6    N261    2.026   .     S
Cu6    S241    2.805   .     S
S7     C55     1.763   .     S
S7     Cu235   2.261   .     S
S7     Cu353   2.239   .     S
S7     Cu240   2.805   .     S
S8     C43     1.759   .     S
S8     Cu587   2.267   .     S
S9     C38     1.762   .     S
S9     Cu586   2.267   .     S
S9     Cu123   2.251   .     S
O10    C44     1.279   .     S
O11    C60     1.260   .     S
O12    H13     0.885   .     S
O12    H14     0.852   .     S
O15    C45     1.258   .     S
O16    H17     0.883   .     S
O16    C34     1.443   .     S
O18    C74     1.268   .     S
O19    C50     1.267   .     S
O20    C53     1.209   .     S
O21    C45     1.251   .     S
O22    C74     1.234   .     S
O23    C46     1.260   .     S
O24    C50     1.264   .     S
O25    C51     1.243   .     S
N26    C43     1.291   .     S
N26    C63     1.460   .     S
N27    C46     1.331   .     S
N27    C55     1.382   .     S
N27    Cu240   2.026   .     S
N28    C38     1.286   .     S
N28    C47     1.455   .     S
N29    C93     1.469   .     S
N29    C55     1.279   .     S
N30    C44     1.335   .     S
N30    C43     1.381   .     S
N31    C60     1.348   .     S
N31    C38     1.387   .     S
N32    C39     1.444   .     S
N32    C56     1.457   .     S
N32    C53     1.310   .     S
N33    C51     1.309   .     S
N33    C101    1.450   .     S
N33    C105    1.466   .     S
C34    H35     0.979   .     S
C34    H36     0.980   .     S
C34    H37     0.981   .     S
C39    H40     0.980   .     S
C39    H41     0.979   .     S
C39    H42     0.980   .     S
C44    C61     1.479   .     S
C45    C63     1.507   .     S
C46    C96     1.501   .     S
C47    H48     0.991   .     S
C47    H49     0.989   .     S
C47    C74     1.529   .     S
C50    C93     1.489   .     S
C51    H52     0.950   .     S
C53    H54     0.950   .     S
C56    H57     0.980   .     S
C56    H58     0.980   .     S
C56    H59     0.981   .     S
C60    C62     1.493   .     S
C61    C66     1.364   .     S
C61    C68     1.401   .     S
C62    C70     1.383   .     S
C62    C72     1.399   .     S
C63    H64     0.989   .     S
C63    H65     0.990   .     S
C66    H67     0.950   .     S
C66    C75     1.386   .     S
C68    H69     0.950   .     S
C68    C77     1.381   .     S
C70    H71     0.950   .     S
C70    C79     1.395   1_455 S
C72    H73     0.950   .     S
C72    C81     1.388   .     S
C75    H76     0.950   .     S
C75    C83     1.386   .     S
C77    H78     0.950   .     S
C77    C83     1.389   .     S
C79    C70     1.395   1_655 S
C79    H80     0.949   .     S
C79    C84     1.385   .     S
C81    H82     0.951   .     S
C81    C84     1.372   1_455 S
C83    C85     1.491   .     S
C84    C89     1.511   .     S
C84    C81     1.372   1_655 S
C85    H86     0.980   .     S
C85    H87     0.980   .     S
C85    H88     0.981   .     S
C89    H90     0.981   .     S
C89    H91     0.979   .     S
C89    H92     0.980   .     S
C93    H94     0.989   .     S
C93    H95     0.991   .     S
C96    C97     1.390   .     S
C96    C99     1.388   .     S
C97    H98     0.949   .     S
C97    C109    1.380   .     S
C99    H100    0.950   .     S
C99    C111    1.400   .     S
C101   H102    0.981   .     S
C101   H103    0.980   .     S
C101   H104    0.979   .     S
C105   H106    0.981   .     S
C105   H107    0.981   .     S
C105   H108    0.979   .     S
C109   H110    0.949   .     S
C109   C113    1.377   1_565 S
C111   H112    0.950   1_565 S
C111   C113    1.362   1_565 S
H112   C111    0.950   1_545 S
C113   C109    1.377   1_545 S
C113   C114    1.520   .     S
C113   C111    1.362   1_545 S
C114   H115    0.979   .     S
C114   H116    0.980   .     S
C114   H117    0.980   .     S
Cu118  S125    2.835   1_655 S
Cu118  N147    2.060   .     S
Cu118  S358    2.261   .     S
Cu118  S477    2.267   .     S
Cu119  S126    2.856   1_554 S
Cu119  N148    2.021   .     S
Cu119  S241    2.239   1_554 S
Cu119  S476    2.267   .     S
Cu120  O127    1.926   .     S
Cu120  O129    1.955   .     S
Cu120  O132    1.982   .     S
Cu120  O133    2.327   .     S
Cu120  N143    1.915   .     S
Cu121  O128    1.904   .     S
Cu121  O135    1.944   .     S
Cu121  O136    1.965   .     S
Cu121  O137    2.258   1_554 S
Cu121  N145    1.932   1_554 S
Cu122  O138    1.915   .     S
Cu122  O140    1.929   1_455 S
Cu122  O141    1.960   .     S
Cu122  O142    2.394   .     S
Cu122  N146    1.902   .     S
Cu123  S125    2.246   .     S
Cu123  N378    2.026   .     S
Cu123  S358    2.805   1_455 S
S124   C172    1.763   .     S
S124   Cu352   2.261   .     S
S124   Cu236   2.239   1_454 S
S124   Cu357   2.805   1_455 S
S125   Cu118   2.835   1_455 S
S125   C160    1.759   1_455 S
S125   Cu470   2.267   1_455 S
S126   Cu119   2.856   1_556 S
S126   C155    1.762   .     S
S126   Cu469   2.267   1_556 S
O127   C161    1.279   .     S
O128   C177    1.260   .     S
O129   H130    0.885   .     S
O129   H131    0.852   .     S
O132   C162    1.258   1_655 S
O133   H134    0.883   .     S
O133   C151    1.443   .     S
O135   C191    1.268   1_554 S
O136   C167    1.267   .     S
O137   Cu121   2.258   1_556 S
O137   C170    1.209   .     S
O138   C162    1.251   .     S
O139   C191    1.234   .     S
O140   Cu122   1.929   1_655 S
O140   C163    1.260   .     S
O141   C167    1.264   .     S
O142   C168    1.243   1_455 S
N143   C160    1.291   .     S
N143   C180    1.460   1_655 S
N144   C163    1.331   .     S
N144   C172    1.382   1_655 S
N144   Cu357   2.026   .     S
N145   Cu121   1.932   1_556 S
N145   C155    1.286   .     S
N145   C164    1.455   .     S
N146   C210    1.469   .     S
N146   C172    1.279   .     S
N147   C161    1.335   .     S
N147   C160    1.381   .     S
N148   C177    1.348   .     S
N148   C155    1.387   1_554 S
N149   C156    1.444   .     S
N149   C173    1.457   .     S
N149   C170    1.310   .     S
N150   C168    1.309   1_455 S
N150   C218    1.450   .     S
N150   C222    1.466   1_455 S
C151   H152    0.979   .     S
C151   H153    0.980   .     S
C151   H154    0.981   .     S
C155   N148    1.387   1_556 S
C156   H157    0.980   .     S
C156   H158    0.979   .     S
C156   H159    0.980   .     S
C160   S125    1.759   1_655 S
C161   C178    1.479   .     S
C162   O132    1.258   1_455 S
C162   C180    1.507   .     S
C163   C213    1.501   .     S
C164   H165    0.991   .     S
C164   H166    0.989   .     S
C164   C191    1.529   .     S
C167   C210    1.489   .     S
C168   N150    1.309   1_655 S
C168   O142    1.243   1_655 S
C168   H169    0.950   .     S
C170   H171    0.950   .     S
C172   N144    1.382   1_455 S
C173   H174    0.980   .     S
C173   H175    0.980   .     S
C173   H176    0.981   .     S
C177   C179    1.493   .     S
C178   C183    1.364   .     S
C178   C185    1.401   .     S
C179   C187    1.383   .     S
C179   C189    1.399   .     S
C180   N143    1.460   1_455 S
C180   H181    0.989   .     S
C180   H182    0.990   .     S
C183   H184    0.950   .     S
C183   C192    1.386   .     S
C185   H186    0.950   .     S
C185   C194    1.381   .     S
C187   H188    0.950   .     S
C187   C196    1.395   .     S
C189   H190    0.950   .     S
C189   C198    1.388   .     S
C191   O135    1.268   1_556 S
C192   H193    0.950   .     S
C192   C200    1.386   .     S
C194   H195    0.950   .     S
C194   C200    1.389   .     S
C196   H197    0.949   .     S
C196   C201    1.385   .     S
C198   H199    0.951   .     S
C198   C201    1.372   .     S
C200   C202    1.491   .     S
C201   C206    1.511   .     S
C202   H203    0.980   .     S
C202   H204    0.980   .     S
C202   H205    0.981   .     S
C206   H207    0.981   .     S
C206   H208    0.979   .     S
C206   H209    0.980   .     S
C210   H211    0.989   .     S
C210   H212    0.991   .     S
C213   C214    1.390   .     S
C213   C216    1.388   .     S
C214   H215    0.949   .     S
C214   C226    1.380   .     S
C216   H217    0.950   .     S
C216   C228    1.400   .     S
C218   H219    0.981   .     S
C218   H220    0.980   .     S
C218   H221    0.979   1_455 S
H221   C218    0.979   1_655 S
C222   N150    1.466   1_655 S
C222   H223    0.981   .     S
C222   H224    0.981   1_655 S
C222   H225    0.979   .     S
H224   C222    0.981   1_455 S
C226   H227    0.949   .     S
C226   C230    1.377   1_545 S
C228   H229    0.950   1_545 S
C228   C230    1.362   1_545 S
H229   C228    0.950   1_565 S
C230   C226    1.377   1_565 S
C230   C231    1.520   .     S
C230   C228    1.362   1_565 S
C231   H232    0.979   .     S
C231   H233    0.980   .     S
C231   H234    0.980   .     S
Cu235  S242    2.835   1_565 S
Cu235  N264    2.060   1_565 S
Cu235  S828    2.267   1_565 S
Cu236  S243    2.856   1_556 S
Cu236  N265    2.021   .     S
Cu236  S124    2.239   1_656 S
Cu236  S827    2.267   1_655 S
Cu237  O244    1.926   .     S
Cu237  O246    1.955   .     S
Cu237  O249    1.982   .     S
Cu237  O250    2.327   .     S
Cu237  N260    1.915   .     S
Cu238  O245    1.904   .     S
Cu238  O252    1.944   .     S
Cu238  O253    1.965   .     S
Cu238  O254    2.258   1_556 S
Cu238  N262    1.932   1_556 S
Cu239  O255    1.915   .     S
Cu239  O257    1.929   .     S
Cu239  O258    1.960   .     S
Cu239  O259    2.394   .     S
Cu239  N263    1.902   .     S
Cu240  S242    2.246   1_565 S
Cu240  S360    2.251   .     S
S241   C289    1.763   .     S
S241   Cu119   2.239   1_556 S
S242   Cu235   2.835   1_545 S
S242   Cu240   2.246   1_545 S
S242   C277    1.759   .     S
S242   Cu821   2.267   .     S
S243   Cu236   2.856   1_554 S
S243   C272    1.762   .     S
S243   Cu820   2.267   1_544 S
S243   Cu357   2.251   .     S
O244   C278    1.279   .     S
O245   C294    1.260   .     S
O246   H247    0.885   .     S
O246   H248    0.852   .     S
O249   C279    1.258   .     S
O250   H251    0.883   .     S
O250   C268    1.443   1_545 S
O252   C308    1.268   1_556 S
O253   C284    1.267   .     S
O254   Cu238   2.258   1_554 S
O254   C287    1.209   .     S
O255   C279    1.251   .     S
O256   C308    1.234   .     S
O257   C280    1.260   .     S
O258   C284    1.264   .     S
O259   C285    1.243   .     S
N260   C277    1.291   .     S
N260   C297    1.460   .     S
N261   C280    1.331   .     S
N261   C289    1.382   .     S
N262   Cu238   1.932   1_554 S
N262   C272    1.286   .     S
N262   C281    1.455   .     S
N263   C327    1.469   .     S
N263   C289    1.279   .     S
N264   Cu235   2.060   1_545 S
N264   C278    1.335   .     S
N264   C277    1.381   .     S
N265   C294    1.348   .     S
N265   C272    1.387   1_556 S
N266   C273    1.444   .     S
N266   C290    1.457   .     S
N266   C287    1.310   .     S
N267   C285    1.309   .     S
N267   C335    1.450   .     S
N267   C339    1.466   1_545 S
C268   O250    1.443   1_565 S
C268   H269    0.979   .     S
C268   H270    0.980   .     S
C268   H271    0.981   .     S
C272   N265    1.387   1_554 S
C273   H274    0.980   .     S
C273   H275    0.979   .     S
C273   H276    0.980   .     S
C278   C295    1.479   .     S
C279   C297    1.507   .     S
C280   C330    1.501   .     S
C281   H282    0.991   .     S
C281   H283    0.989   .     S
C281   C308    1.529   .     S
C284   C327    1.489   .     S
C285   H286    0.950   .     S
C287   H288    0.950   .     S
C290   H291    0.980   .     S
C290   H292    0.980   .     S
C290   H293    0.981   .     S
C294   C296    1.493   .     S
C295   C300    1.364   .     S
C295   C302    1.401   1_545 S
C296   C304    1.383   .     S
C296   C306    1.399   .     S
C297   H298    0.989   .     S
C297   H299    0.990   .     S
C300   H301    0.950   .     S
C300   C309    1.386   .     S
C302   C295    1.401   1_565 S
C302   H303    0.950   .     S
C302   C311    1.381   .     S
C304   H305    0.950   .     S
C304   C313    1.395   1_655 S
C306   H307    0.950   .     S
C306   C315    1.388   .     S
C308   O252    1.268   1_554 S
C309   H310    0.950   .     S
C309   C317    1.386   1_545 S
C311   H312    0.950   .     S
C311   C317    1.389   .     S
C313   C304    1.395   1_455 S
C313   H314    0.949   .     S
C313   C318    1.385   .     S
C315   H316    0.951   .     S
C315   C318    1.372   1_655 S
C317   C309    1.386   1_565 S
C317   C319    1.491   .     S
C318   C323    1.511   .     S
C318   C315    1.372   1_455 S
C319   H320    0.980   .     S
C319   H321    0.980   .     S
C319   H322    0.981   .     S
C323   H324    0.981   .     S
C323   H325    0.979   .     S
C323   H326    0.980   .     S
C327   H328    0.989   .     S
C327   H329    0.991   .     S
C330   C331    1.390   .     S
C330   C333    1.388   .     S
C331   H332    0.949   .     S
C331   C343    1.380   .     S
C333   H334    0.950   .     S
C333   C345    1.400   .     S
C335   H336    0.981   .     S
C335   H337    0.980   .     S
C335   H338    0.979   .     S
C339   N267    1.466   1_565 S
C339   H340    0.981   .     S
C339   H341    0.981   .     S
C339   H342    0.979   .     S
C343   H344    0.949   .     S
C343   C347    1.377   .     S
C345   H346    0.950   .     S
C345   C347    1.362   .     S
C347   C348    1.520   .     S
C348   H349    0.979   .     S
C348   H350    0.980   .     S
C348   H351    0.980   .     S
Cu352  S359    2.835   1_445 S
Cu352  N381    2.060   1_545 S
Cu352  S711    2.267   1_544 S
Cu353  S360    2.856   .     S
Cu353  N382    2.021   .     S
Cu353  S710    2.267   .     S
Cu354  O361    1.926   .     S
Cu354  O363    1.955   .     S
Cu354  O366    1.982   .     S
Cu354  O367    2.327   .     S
Cu354  N377    1.915   .     S
Cu355  O362    1.904   .     S
Cu355  O369    1.944   .     S
Cu355  O370    1.965   .     S
Cu355  O371    2.258   .     S
Cu355  N379    1.932   .     S
Cu356  O372    1.915   .     S
Cu356  O374    1.929   1_655 S
Cu356  O375    1.960   .     S
Cu356  O376    2.394   .     S
Cu356  N380    1.902   .     S
Cu357  S359    2.246   1_545 S
Cu357  S124    2.805   1_655 S
S358   C406    1.763   .     S
S358   Cu2     2.239   1_655 S
S358   Cu123   2.805   1_655 S
S359   Cu352   2.835   1_665 S
S359   Cu357   2.246   1_565 S
S359   C394    1.759   1_655 S
S359   Cu704   2.267   1_655 S
S360   C389    1.762   .     S
S360   Cu703   2.267   1_565 S
O361   C395    1.279   .     S
O362   C411    1.260   .     S
O363   H364    0.885   .     S
O363   H365    0.852   .     S
O366   C396    1.258   1_455 S
O367   H368    0.883   .     S
O367   C385    1.443   1_565 S
O369   C425    1.268   .     S
O370   C401    1.267   .     S
O371   C404    1.209   .     S
O372   C396    1.251   .     S
O373   C425    1.234   .     S
O374   Cu356   1.929   1_455 S
O374   C397    1.260   .     S
O375   C401    1.264   .     S
O376   C402    1.243   1_655 S
N377   C394    1.291   .     S
N377   C414    1.460   1_455 S
N378   C397    1.331   .     S
N378   C406    1.382   1_455 S
N379   C389    1.286   .     S
N379   C398    1.455   .     S
N380   C444    1.469   .     S
N380   C406    1.279   .     S
N381   Cu352   2.060   1_565 S
N381   C395    1.335   .     S
N381   C394    1.381   .     S
N382   C411    1.348   .     S
N382   C389    1.387   .     S
N383   C390    1.444   .     S
N383   C407    1.457   .     S
N383   C404    1.310   .     S
N384   C402    1.309   1_655 S
N384   C452    1.450   .     S
N384   C456    1.466   1_665 S
C385   O367    1.443   1_545 S
C385   H386    0.979   .     S
C385   H387    0.980   .     S
C385   H388    0.981   .     S
C390   H391    0.980   .     S
C390   H392    0.979   .     S
C390   H393    0.980   .     S
C394   S359    1.759   1_455 S
C395   C412    1.479   .     S
C396   O366    1.258   1_655 S
C396   C414    1.507   .     S
C397   C447    1.501   .     S
C398   H399    0.991   .     S
C398   H400    0.989   .     S
C398   C425    1.529   .     S
C401   C444    1.489   .     S
C402   N384    1.309   1_455 S
C402   O376    1.243   1_455 S
C402   H403    0.950   .     S
C404   H405    0.950   .     S
C406   N378    1.382   1_655 S
C407   H408    0.980   .     S
C407   H409    0.980   .     S
C407   H410    0.981   .     S
C411   C413    1.493   .     S
C412   C417    1.364   .     S
C412   C419    1.401   1_565 S
C413   C421    1.383   .     S
C413   C423    1.399   .     S
C414   N377    1.460   1_655 S
C414   H415    0.989   .     S
C414   H416    0.990   .     S
C417   H418    0.950   .     S
C417   C426    1.386   .     S
C419   C412    1.401   1_545 S
C419   H420    0.950   .     S
C419   C428    1.381   .     S
C421   H422    0.950   .     S
C421   C430    1.395   .     S
C423   H424    0.950   .     S
C423   C432    1.388   .     S
C426   H427    0.950   .     S
C426   C434    1.386   1_565 S
C428   H429    0.950   .     S
C428   C434    1.389   .     S
C430   H431    0.949   .     S
C430   C435    1.385   .     S
C432   H433    0.951   .     S
C432   C435    1.372   .     S
C434   C426    1.386   1_545 S
C434   C436    1.491   .     S
C435   C440    1.511   .     S
C436   H437    0.980   .     S
C436   H438    0.980   .     S
C436   H439    0.981   .     S
C440   H441    0.981   .     S
C440   H442    0.979   .     S
C440   H443    0.980   .     S
C444   H445    0.989   .     S
C444   H446    0.991   .     S
C447   C448    1.390   .     S
C447   C450    1.388   .     S
C448   H449    0.949   .     S
C448   C460    1.380   .     S
C450   H451    0.950   .     S
C450   C462    1.400   .     S
C452   H453    0.981   .     S
C452   H454    0.980   .     S
C452   H455    0.979   1_655 S
H455   C452    0.979   1_455 S
C456   N384    1.466   1_445 S
C456   H457    0.981   .     S
C456   H458    0.981   1_455 S
C456   H459    0.979   .     S
H458   C456    0.981   1_655 S
C460   H461    0.949   .     S
C460   C464    1.377   .     S
C462   H463    0.950   .     S
C462   C464    1.362   .     S
C464   C465    1.520   .     S
C465   H466    0.979   .     S
C465   H467    0.980   .     S
C465   H468    0.980   .     S
Cu469  S476    2.835   .     S
Cu469  N498    2.060   .     S
Cu469  S709    2.261   .     S
Cu469  S126    2.267   1_554 S
Cu470  S477    2.856   .     S
Cu470  N499    2.021   .     S
Cu470  S826    2.239   1_655 S
Cu470  S125    2.267   1_655 S
Cu471  O478    1.926   .     S
Cu471  O480    1.955   .     S
Cu471  O483    1.982   .     S
Cu471  O484    2.327   .     S
Cu471  N494    1.915   .     S
Cu472  O479    1.904   .     S
Cu472  O486    1.944   .     S
Cu472  O487    1.965   .     S
Cu472  O488    2.258   .     S
Cu472  N496    1.932   .     S
Cu473  O489    1.915   .     S
Cu473  O491    1.929   .     S
Cu473  O492    1.960   .     S
Cu473  O493    2.394   .     S
Cu473  N497    1.902   .     S
Cu474  S476    2.246   .     S
Cu474  S594    2.251   .     S
Cu474  N729    2.026   .     S
Cu474  S709    2.805   .     S
S475   C523    1.763   .     S
S475   Cu703   2.261   .     S
S475   Cu821   2.239   .     S
S475   Cu708   2.805   .     S
S476   C511    1.759   .     S
S477   C506    1.762   .     S
S477   Cu591   2.251   .     S
O478   C512    1.279   .     S
O479   C528    1.260   .     S
O480   H481    0.885   .     S
O480   H482    0.852   .     S
O483   C513    1.258   .     S
O484   H485    0.883   .     S
O484   C502    1.443   .     S
O486   C542    1.268   .     S
O487   C518    1.267   .     S
O488   C521    1.209   .     S
O489   C513    1.251   .     S
O490   C542    1.234   .     S
O491   C514    1.260   .     S
O492   C518    1.264   .     S
O493   C519    1.243   .     S
N494   C511    1.291   .     S
N494   C531    1.460   .     S
N495   C514    1.331   .     S
N495   C523    1.382   .     S
N495   Cu708   2.026   .     S
N496   C506    1.286   .     S
N496   C515    1.455   .     S
N497   C561    1.469   .     S
N497   C523    1.279   .     S
N498   C512    1.335   .     S
N498   C511    1.381   .     S
N499   C528    1.348   .     S
N499   C506    1.387   .     S
N500   C507    1.444   .     S
N500   C524    1.457   .     S
N500   C521    1.310   .     S
N501   C519    1.309   .     S
N501   C569    1.450   .     S
N501   C573    1.466   .     S
C502   H503    0.979   .     S
C502   H504    0.980   .     S
C502   H505    0.981   .     S
C507   H508    0.980   .     S
C507   H509    0.979   .     S
C507   H510    0.980   .     S
C512   C529    1.479   .     S
C513   C531    1.507   .     S
C514   C564    1.501   .     S
C515   H516    0.991   .     S
C515   H517    0.989   .     S
C515   C542    1.529   .     S
C518   C561    1.489   .     S
C519   H520    0.950   .     S
C521   H522    0.950   .     S
C524   H525    0.980   .     S
C524   H526    0.980   .     S
C524   H527    0.981   .     S
C528   C530    1.493   .     S
C529   C534    1.364   .     S
C529   C536    1.401   .     S
C530   C538    1.383   .     S
C530   C540    1.399   .     S
C531   H532    0.989   .     S
C531   H533    0.990   .     S
C534   H535    0.950   .     S
C534   C543    1.386   .     S
C536   H537    0.950   .     S
C536   C545    1.381   .     S
C538   H539    0.950   .     S
C538   C547    1.395   1_655 S
C540   H541    0.950   .     S
C540   C549    1.388   .     S
C543   H544    0.950   .     S
C543   C551    1.386   .     S
C545   H546    0.950   .     S
C545   C551    1.389   .     S
C547   C538    1.395   1_455 S
C547   H548    0.949   .     S
C547   C552    1.385   .     S
C549   H550    0.951   .     S
C549   C552    1.372   1_655 S
C551   C553    1.491   .     S
C552   C557    1.511   .     S
C552   C549    1.372   1_455 S
C553   H554    0.980   .     S
C553   H555    0.980   .     S
C553   H556    0.981   .     S
C557   H558    0.981   .     S
C557   H559    0.979   .     S
C557   H560    0.980   .     S
C561   H562    0.989   .     S
C561   H563    0.991   .     S
C564   C565    1.390   .     S
C564   C567    1.388   .     S
C565   H566    0.949   .     S
C565   C577    1.380   .     S
C567   H568    0.950   .     S
C567   C579    1.400   .     S
C569   H570    0.981   .     S
C569   H571    0.980   .     S
C569   H572    0.979   .     S
C573   H574    0.981   .     S
C573   H575    0.981   .     S
C573   H576    0.979   .     S
C577   H578    0.949   .     S
C577   C581    1.377   1_545 S
C579   H580    0.950   1_545 S
C579   C581    1.362   1_545 S
H580   C579    0.950   1_565 S
C581   C577    1.377   1_565 S
C581   C582    1.520   .     S
C581   C579    1.362   1_565 S
C582   H583    0.979   .     S
C582   H584    0.980   .     S
C582   H585    0.980   .     S
Cu586  S593    2.835   1_455 S
Cu586  N615    2.060   .     S
Cu586  S826    2.261   .     S
Cu587  S594    2.856   1_556 S
Cu587  N616    2.021   .     S
Cu587  S709    2.239   1_556 S
Cu588  O595    1.926   .     S
Cu588  O597    1.955   .     S
Cu588  O600    1.982   .     S
Cu588  O601    2.327   .     S
Cu588  N611    1.915   .     S
Cu589  O596    1.904   .     S
Cu589  O603    1.944   .     S
Cu589  O604    1.965   .     S
Cu589  O605    2.258   1_556 S
Cu589  N613    1.932   1_556 S
Cu590  O606    1.915   .     S
Cu590  O608    1.929   1_655 S
Cu590  O609    1.960   .     S
Cu590  O610    2.394   .     S
Cu590  N614    1.902   .     S
Cu591  S593    2.246   .     S
Cu591  N846    2.026   .     S
Cu591  S826    2.805   1_655 S
S592   C640    1.763   .     S
S592   Cu820   2.261   .     S
S592   Cu704   2.239   1_656 S
S592   Cu825   2.805   1_655 S
S593   Cu586   2.835   1_655 S
S593   C628    1.759   1_655 S
S593   Cu2     2.267   1_655 S
S594   Cu587   2.856   1_554 S
S594   C623    1.762   .     S
S594   Cu1     2.267   1_554 S
O595   C629    1.279   .     S
O596   C645    1.260   .     S
O597   H598    0.885   .     S
O597   H599    0.852   .     S
O600   C630    1.258   1_455 S
O601   H602    0.883   .     S
O601   C619    1.443   .     S
O603   C659    1.268   1_556 S
O604   C635    1.267   .     S
O605   Cu589   2.258   1_554 S
O605   C638    1.209   .     S
O606   C630    1.251   .     S
O607   C659    1.234   .     S
O608   Cu590   1.929   1_455 S
O608   C631    1.260   .     S
O609   C635    1.264   .     S
O610   C636    1.243   1_655 S
N611   C628    1.291   .     S
N611   C648    1.460   1_455 S
N612   C631    1.331   .     S
N612   C640    1.382   1_455 S
N612   Cu825   2.026   .     S
N613   Cu589   1.932   1_554 S
N613   C623    1.286   .     S
N613   C632    1.455   .     S
N614   C678    1.469   .     S
N614   C640    1.279   .     S
N615   C629    1.335   .     S
N615   C628    1.381   .     S
N616   C645    1.348   .     S
N616   C623    1.387   1_556 S
N617   C624    1.444   .     S
N617   C641    1.457   .     S
N617   C638    1.310   .     S
N618   C636    1.309   1_655 S
N618   C686    1.450   .     S
N618   C690    1.466   1_655 S
C619   H620    0.979   .     S
C619   H621    0.980   .     S
C619   H622    0.981   .     S
C623   N616    1.387   1_554 S
C624   H625    0.980   .     S
C624   H626    0.979   .     S
C624   H627    0.980   .     S
C628   S593    1.759   1_455 S
C629   C646    1.479   .     S
C630   O600    1.258   1_655 S
C630   C648    1.507   .     S
C631   C681    1.501   .     S
C632   H633    0.991   .     S
C632   H634    0.989   .     S
C632   C659    1.529   .     S
C635   C678    1.489   .     S
C636   N618    1.309   1_455 S
C636   O610    1.243   1_455 S
C636   H637    0.950   .     S
C638   H639    0.950   .     S
C640   N612    1.382   1_655 S
C641   H642    0.980   .     S
C641   H643    0.980   .     S
C641   H644    0.981   .     S
C645   C647    1.493   .     S
C646   C651    1.364   .     S
C646   C653    1.401   .     S
C647   C655    1.383   .     S
C647   C657    1.399   .     S
C648   N611    1.460   1_655 S
C648   H649    0.989   .     S
C648   H650    0.990   .     S
C651   H652    0.950   .     S
C651   C660    1.386   .     S
C653   H654    0.950   .     S
C653   C662    1.381   .     S
C655   H656    0.950   .     S
C655   C664    1.395   .     S
C657   H658    0.950   .     S
C657   C666    1.388   .     S
C659   O603    1.268   1_554 S
C660   H661    0.950   .     S
C660   C668    1.386   .     S
C662   H663    0.950   .     S
C662   C668    1.389   .     S
C664   H665    0.949   .     S
C664   C669    1.385   .     S
C666   H667    0.951   .     S
C666   C669    1.372   .     S
C668   C670    1.491   .     S
C669   C674    1.511   .     S
C670   H671    0.980   .     S
C670   H672    0.980   .     S
C670   H673    0.981   .     S
C674   H675    0.981   .     S
C674   H676    0.979   .     S
C674   H677    0.980   .     S
C678   H679    0.989   .     S
C678   H680    0.991   .     S
C681   C682    1.390   .     S
C681   C684    1.388   .     S
C682   H683    0.949   .     S
C682   C694    1.380   .     S
C684   H685    0.950   .     S
C684   C696    1.400   .     S
C686   H687    0.981   .     S
C686   H688    0.980   .     S
C686   H689    0.979   1_655 S
H689   C686    0.979   1_455 S
C690   N618    1.466   1_455 S
C690   H691    0.981   .     S
C690   H692    0.981   1_455 S
C690   H693    0.979   .     S
H692   C690    0.981   1_655 S
C694   H695    0.949   .     S
C694   C698    1.377   1_565 S
C696   H697    0.950   1_565 S
C696   C698    1.362   1_565 S
H697   C696    0.950   1_545 S
C698   C694    1.377   1_545 S
C698   C699    1.520   .     S
C698   C696    1.362   1_545 S
C699   H700    0.979   .     S
C699   H701    0.980   .     S
C699   H702    0.980   .     S
Cu703  S710    2.835   1_545 S
Cu703  N732    2.060   1_545 S
Cu703  S360    2.267   1_545 S
Cu704  S711    2.856   1_554 S
Cu704  N733    2.021   .     S
Cu704  S592    2.239   1_454 S
Cu704  S359    2.267   1_455 S
Cu705  O712    1.926   .     S
Cu705  O714    1.955   .     S
Cu705  O717    1.982   .     S
Cu705  O718    2.327   .     S
Cu705  N728    1.915   .     S
Cu706  O713    1.904   .     S
Cu706  O720    1.944   .     S
Cu706  O721    1.965   .     S
Cu706  O722    2.258   1_554 S
Cu706  N730    1.932   1_554 S
Cu707  O723    1.915   .     S
Cu707  O725    1.929   .     S
Cu707  O726    1.960   .     S
Cu707  O727    2.394   .     S
Cu707  N731    1.902   .     S
Cu708  S710    2.246   1_545 S
Cu708  S828    2.251   .     S
S709   C757    1.763   .     S
S709   Cu587   2.239   1_554 S
S710   Cu703   2.835   1_565 S
S710   Cu708   2.246   1_565 S
S710   C745    1.759   .     S
S711   Cu704   2.856   1_556 S
S711   C740    1.762   .     S
S711   Cu352   2.267   1_566 S
S711   Cu825   2.251   .     S
O712   C746    1.279   .     S
O713   C762    1.260   .     S
O714   H715    0.885   .     S
O714   H716    0.852   .     S
O717   C747    1.258   .     S
O718   H719    0.883   .     S
O718   C736    1.443   1_565 S
O720   C776    1.268   1_554 S
O721   C752    1.267   .     S
O722   Cu706   2.258   1_556 S
O722   C755    1.209   .     S
O723   C747    1.251   .     S
O724   C776    1.234   .     S
O725   C748    1.260   .     S
O726   C752    1.264   .     S
O727   C753    1.243   .     S
N728   C745    1.291   .     S
N728   C765    1.460   .     S
N729   C748    1.331   .     S
N729   C757    1.382   .     S
N730   Cu706   1.932   1_556 S
N730   C740    1.286   .     S
N730   C749    1.455   .     S
N731   C795    1.469   .     S
N731   C757    1.279   .     S
N732   Cu703   2.060   1_565 S
N732   C746    1.335   .     S
N732   C745    1.381   .     S
N733   C762    1.348   .     S
N733   C740    1.387   1_554 S
N734   C741    1.444   .     S
N734   C758    1.457   .     S
N734   C755    1.310   .     S
N735   C753    1.309   .     S
N735   C803    1.450   .     S
N735   C807    1.466   1_565 S
C736   O718    1.443   1_545 S
C736   H737    0.979   .     S
C736   H738    0.980   .     S
C736   H739    0.981   .     S
C740   N733    1.387   1_556 S
C741   H742    0.980   .     S
C741   H743    0.979   .     S
C741   H744    0.980   .     S
C746   C763    1.479   .     S
C747   C765    1.507   .     S
C748   C798    1.501   .     S
C749   H750    0.991   .     S
C749   H751    0.989   .     S
C749   C776    1.529   .     S
C752   C795    1.489   .     S
C753   H754    0.950   .     S
C755   H756    0.950   .     S
C758   H759    0.980   .     S
C758   H760    0.980   .     S
C758   H761    0.981   .     S
C762   C764    1.493   .     S
C763   C768    1.364   .     S
C763   C770    1.401   1_565 S
C764   C772    1.383   .     S
C764   C774    1.399   .     S
C765   H766    0.989   .     S
C765   H767    0.990   .     S
C768   H769    0.950   .     S
C768   C777    1.386   .     S
C770   C763    1.401   1_545 S
C770   H771    0.950   .     S
C770   C779    1.381   .     S
C772   H773    0.950   .     S
C772   C781    1.395   1_455 S
C774   H775    0.950   .     S
C774   C783    1.388   .     S
C776   O720    1.268   1_556 S
C777   H778    0.950   .     S
C777   C785    1.386   1_565 S
C779   H780    0.950   .     S
C779   C785    1.389   .     S
C781   C772    1.395   1_655 S
C781   H782    0.949   .     S
C781   C786    1.385   .     S
C783   H784    0.951   .     S
C783   C786    1.372   1_455 S
C785   C777    1.386   1_545 S
C785   C787    1.491   .     S
C786   C791    1.511   .     S
C786   C783    1.372   1_655 S
C787   H788    0.980   .     S
C787   H789    0.980   .     S
C787   H790    0.981   .     S
C791   H792    0.981   .     S
C791   H793    0.979   .     S
C791   H794    0.980   .     S
C795   H796    0.989   .     S
C795   H797    0.991   .     S
C798   C799    1.390   .     S
C798   C801    1.388   .     S
C799   H800    0.949   .     S
C799   C811    1.380   .     S
C801   H802    0.950   .     S
C801   C813    1.400   .     S
C803   H804    0.981   .     S
C803   H805    0.980   .     S
C803   H806    0.979   .     S
C807   N735    1.466   1_545 S
C807   H808    0.981   .     S
C807   H809    0.981   .     S
C807   H810    0.979   .     S
C811   H812    0.949   .     S
C811   C815    1.377   .     S
C813   H814    0.950   .     S
C813   C815    1.362   .     S
C815   C816    1.520   .     S
C816   H817    0.979   .     S
C816   H818    0.980   .     S
C816   H819    0.980   .     S
Cu820  S827    2.835   1_665 S
Cu820  N849    2.060   1_565 S
Cu820  S243    2.267   1_566 S
Cu821  S828    2.856   .     S
Cu821  N850    2.021   .     S
Cu822  O829    1.926   .     S
Cu822  O831    1.955   .     S
Cu822  O834    1.982   .     S
Cu822  O835    2.327   .     S
Cu822  N845    1.915   .     S
Cu823  O830    1.904   .     S
Cu823  O837    1.944   .     S
Cu823  O838    1.965   .     S
Cu823  O839    2.258   .     S
Cu823  N847    1.932   .     S
Cu824  O840    1.915   .     S
Cu824  O842    1.929   1_455 S
Cu824  O843    1.960   .     S
Cu824  O844    2.394   .     S
Cu824  N848    1.902   .     S
Cu825  S827    2.246   1_565 S
Cu825  S592    2.805   1_455 S
S826   C874    1.763   .     S
S826   Cu470   2.239   1_455 S
S826   Cu591   2.805   1_455 S
S827   Cu820   2.835   1_445 S
S827   Cu825   2.246   1_545 S
S827   C862    1.759   1_455 S
S827   Cu236   2.267   1_455 S
S828   C857    1.762   .     S
S828   Cu235   2.267   1_545 S
O829   C863    1.279   .     S
O830   C879    1.260   .     S
O831   H832    0.885   .     S
O831   H833    0.852   .     S
O834   C864    1.258   1_655 S
O835   H836    0.883   .     S
O835   C853    1.443   1_545 S
O837   C893    1.268   .     S
O838   C869    1.267   .     S
O839   C872    1.209   .     S
O840   C864    1.251   .     S
O841   C893    1.234   .     S
O842   Cu824   1.929   1_655 S
O842   C865    1.260   .     S
O843   C869    1.264   .     S
O844   C870    1.243   1_455 S
N845   C862    1.291   .     S
N845   C882    1.460   1_655 S
N846   C865    1.331   .     S
N846   C874    1.382   1_655 S
N847   C857    1.286   .     S
N847   C866    1.455   .     S
N848   C912    1.469   .     S
N848   C874    1.279   .     S
N849   Cu820   2.060   1_545 S
N849   C863    1.335   .     S
N849   C862    1.381   .     S
N850   C879    1.348   .     S
N850   C857    1.387   .     S
N851   C858    1.444   .     S
N851   C875    1.457   .     S
N851   C872    1.310   .     S
N852   C870    1.309   1_455 S
N852   C920    1.450   .     S
N852   C924    1.466   1_445 S
C853   O835    1.443   1_565 S
C853   H854    0.979   .     S
C853   H855    0.980   .     S
C853   H856    0.981   .     S
C858   H859    0.980   .     S
C858   H860    0.979   .     S
C858   H861    0.980   .     S
C862   S827    1.759   1_655 S
C863   C880    1.479   .     S
C864   O834    1.258   1_455 S
C864   C882    1.507   .     S
C865   C915    1.501   .     S
C866   H867    0.991   .     S
C866   H868    0.989   .     S
C866   C893    1.529   .     S
C869   C912    1.489   .     S
C870   N852    1.309   1_655 S
C870   O844    1.243   1_655 S
C870   H871    0.950   .     S
C872   H873    0.950   .     S
C874   N846    1.382   1_455 S
C875   H876    0.980   .     S
C875   H877    0.980   .     S
C875   H878    0.981   .     S
C879   C881    1.493   .     S
C880   C885    1.364   .     S
C880   C887    1.401   1_545 S
C881   C889    1.383   .     S
C881   C891    1.399   .     S
C882   N845    1.460   1_455 S
C882   H883    0.989   .     S
C882   H884    0.990   .     S
C885   H886    0.950   .     S
C885   C894    1.386   .     S
C887   C880    1.401   1_565 S
C887   H888    0.950   .     S
C887   C896    1.381   .     S
C889   H890    0.950   .     S
C889   C898    1.395   .     S
C891   H892    0.950   .     S
C891   C900    1.388   .     S
C894   H895    0.950   .     S
C894   C902    1.386   1_545 S
C896   H897    0.950   .     S
C896   C902    1.389   .     S
C898   H899    0.949   .     S
C898   C903    1.385   .     S
C900   H901    0.951   .     S
C900   C903    1.372   .     S
C902   C894    1.386   1_565 S
C902   C904    1.491   .     S
C903   C908    1.511   .     S
C904   H905    0.980   .     S
C904   H906    0.980   .     S
C904   H907    0.981   .     S
C908   H909    0.981   .     S
C908   H910    0.979   .     S
C908   H911    0.980   .     S
C912   H913    0.989   .     S
C912   H914    0.991   .     S
C915   C916    1.390   .     S
C915   C918    1.388   .     S
C916   H917    0.949   .     S
C916   C928    1.380   .     S
C918   H919    0.950   .     S
C918   C930    1.400   .     S
C920   H921    0.981   .     S
C920   H922    0.980   .     S
C920   H923    0.979   1_455 S
H923   C920    0.979   1_655 S
C924   N852    1.466   1_665 S
C924   H925    0.981   .     S
C924   H926    0.981   1_655 S
C924   H927    0.979   .     S
H926   C924    0.981   1_455 S
C928   H929    0.949   .     S
C928   C932    1.377   .     S
C930   H931    0.950   .     S
C930   C932    1.362   .     S
C932   C933    1.520   .     S
C933   H934    0.979   .     S
C933   H935    0.980   .     S
C933   H936    0.980   .     S
