data_NOSGEK_FSR
_audit_creation_date              2024-06-11
_audit_creation_method            'Materials Studio'
_symmetry_space_group_name_H-M    'P1'
_symmetry_Int_Tables_number       1
_symmetry_cell_setting            triclinic
loop_
_symmetry_equiv_pos_as_xyz
  x,y,z
_cell_length_a                    21.1044
_cell_length_b                    7.2944
_cell_length_c                    24.7921
_cell_angle_alpha                 90.0000
_cell_angle_beta                  113.6010
_cell_angle_gamma                 90.0000
loop_
_atom_site_label
_atom_site_type_symbol
_atom_site_fract_x
_atom_site_fract_y
_atom_site_fract_z
_atom_site_U_iso_or_equiv
_atom_site_adp_type
_atom_site_occupancy
Co1    Co    0.77584   0.68294   0.85240   0.01426  Uani   1.00
O2     O     0.81287   0.05510   0.65166   0.02133  Uani   1.00
O3     O     0.92029   0.95490   0.68328   0.03251  Uani   1.00
O4     O     0.70916   0.96120   0.69476   0.02335  Uani   1.00
O5     O     0.71160   0.82230   0.77482   0.02192  Uani   1.00
O6     O     0.15887   0.47290   0.07097   0.02290  Uani   1.00
O7     O     0.10700   0.67300   0.10874   0.04811  Uani   1.00
H8     H     0.12350   0.60870   0.13820   0.07200  Uiso   1.00
H9     H     0.96560   0.51250   0.74950   0.08800  Uiso   1.00
N10    N     0.84990   0.82220   0.82740   0.01721  Uani   1.00
N11    N     0.92948   0.86970   0.79052   0.02260  Uani   1.00
N12    N     0.76765   0.88960   0.90999   0.02113  Uani   1.00
C13    C     0.97070   0.76010   0.89474   0.02223  Uani   1.00
C14    C     0.73050   0.04200   0.88780   0.05979  Uani   1.00
H15    H     0.70810   0.05200   0.84710   0.07100  Uiso   1.00
C16    C     0.96130   0.81030   0.94550   0.02705  Uani   1.00
H17    H     0.92260   0.87770   0.94230   0.03200  Uiso   1.00
C18    C     0.91640   0.81510   0.83722   0.02081  Uani   1.00
C19    C     0.79710   0.88360   0.96850   0.04807  Uani   1.00
H20    H     0.82240   0.77950   0.98610   0.05800  Uiso   1.00
C21    C     0.74120   0.89230   0.74491   0.01533  Uani   1.00
C22    C     0.81790   0.88850   0.77087   0.01571  Uani   1.00
C23    C     0.86480   0.98280   0.69054   0.01968  Uani   1.00
C24    C     0.86640   0.91860   0.74786   0.01768  Uani   1.00
C25    C     0.72370   0.18200   0.92100   0.06774  Uani   1.00
H26    H     0.69800   0.28460   0.90270   0.08100  Uiso   1.00
C27    C     0.75420   0.17460   0.98160   0.02435  Uani   1.00
C28    C     0.79270   0.02200   0.00450   0.05520  Uani   1.00
H29    H     0.81620   0.01110   0.04510   0.06600  Uiso   1.00
C30    C     0.07560   0.60520   0.95510   0.02916  Uani   1.00
H31    H     0.11360   0.53470   0.95830   0.03500  Uiso   1.00
C32    C     0.00930   0.76030   0.00060   0.02672  Uani   1.00
H33    H     0.00320   0.79700   0.03410   0.03200  Uiso   1.00
C34    C     0.02840   0.65940   0.90010   0.03015  Uani   1.00
H35    H     0.03550   0.62790   0.86660   0.03600  Uiso   1.00
C36    C     0.06620   0.65620   0.00606   0.02297  Uani   1.00
C37    C     0.11550   0.59200   0.06466   0.02413  Uani   1.00
Co38   Co    0.27584   0.18294   0.85240   0.01426  Uani   1.00
O39    O     0.31287   0.55510   0.65166   0.02133  Uani   1.00
O40    O     0.42029   0.45490   0.68328   0.03251  Uani   1.00
O41    O     0.20916   0.46120   0.69476   0.02335  Uani   1.00
O42    O     0.21160   0.32230   0.77482   0.02192  Uani   1.00
O43    O     0.65887   0.97290   0.07097   0.02290  Uani   1.00
O44    O     0.60700   0.17300   0.10874   0.04811  Uani   1.00
H45    H     0.62350   0.10870   0.13820   0.07200  Uiso   1.00
H46    H     0.46560   0.01250   0.74950   0.08800  Uiso   1.00
N47    N     0.34990   0.32220   0.82740   0.01721  Uani   1.00
N48    N     0.42948   0.36970   0.79052   0.02260  Uani   1.00
N49    N     0.26765   0.38960   0.90999   0.02113  Uani   1.00
C50    C     0.47070   0.26010   0.89474   0.02223  Uani   1.00
C51    C     0.23050   0.54200   0.88780   0.05979  Uani   1.00
H52    H     0.20810   0.55200   0.84710   0.07100  Uiso   1.00
C53    C     0.46130   0.31030   0.94550   0.02705  Uani   1.00
H54    H     0.42260   0.37770   0.94230   0.03200  Uiso   1.00
C55    C     0.41640   0.31510   0.83722   0.02081  Uani   1.00
C56    C     0.29710   0.38360   0.96850   0.04807  Uani   1.00
H57    H     0.32240   0.27950   0.98610   0.05800  Uiso   1.00
C58    C     0.24120   0.39230   0.74491   0.01533  Uani   1.00
C59    C     0.31790   0.38850   0.77087   0.01571  Uani   1.00
C60    C     0.36480   0.48280   0.69054   0.01968  Uani   1.00
C61    C     0.36640   0.41860   0.74786   0.01768  Uani   1.00
C62    C     0.22370   0.68200   0.92100   0.06774  Uani   1.00
H63    H     0.19800   0.78460   0.90270   0.08100  Uiso   1.00
C64    C     0.25420   0.67460   0.98160   0.02435  Uani   1.00
C65    C     0.29270   0.52200   0.00450   0.05520  Uani   1.00
H66    H     0.31620   0.51110   0.04510   0.06600  Uiso   1.00
C67    C     0.57560   0.10520   0.95510   0.02916  Uani   1.00
H68    H     0.61360   0.03470   0.95830   0.03500  Uiso   1.00
C69    C     0.50930   0.26030   0.00060   0.02672  Uani   1.00
H70    H     0.50320   0.29700   0.03410   0.03200  Uiso   1.00
C71    C     0.52840   0.15940   0.90010   0.03015  Uani   1.00
H72    H     0.53550   0.12790   0.86660   0.03600  Uiso   1.00
C73    C     0.56620   0.15620   0.00606   0.02297  Uani   1.00
C74    C     0.61550   0.09200   0.06466   0.02413  Uani   1.00
Co75   Co    0.22416   0.68294   0.64760   0.01426  Uani   1.00
O76    O     0.18713   0.05510   0.84834   0.02133  Uani   1.00
O77    O     0.07971   0.95490   0.81672   0.03251  Uani   1.00
O78    O     0.29084   0.96120   0.80524   0.02335  Uani   1.00
O79    O     0.28840   0.82230   0.72518   0.02192  Uani   1.00
O80    O     0.84113   0.47290   0.42903   0.02290  Uani   1.00
O81    O     0.89300   0.67300   0.39126   0.04811  Uani   1.00
H82    H     0.87650   0.60870   0.36180   0.07200  Uiso   1.00
H83    H     0.03440   0.51250   0.75050   0.08800  Uiso   1.00
N84    N     0.15010   0.82220   0.67260   0.01721  Uani   1.00
N85    N     0.07052   0.86970   0.70948   0.02260  Uani   1.00
N86    N     0.23235   0.88960   0.59001   0.02113  Uani   1.00
C87    C     0.02930   0.76010   0.60526   0.02223  Uani   1.00
C88    C     0.26950   0.04200   0.61220   0.05979  Uani   1.00
H89    H     0.29190   0.05200   0.65290   0.07100  Uiso   1.00
C90    C     0.03870   0.81030   0.55450   0.02705  Uani   1.00
H91    H     0.07740   0.87770   0.55770   0.03200  Uiso   1.00
C92    C     0.08360   0.81510   0.66278   0.02081  Uani   1.00
C93    C     0.20290   0.88360   0.53150   0.04807  Uani   1.00
H94    H     0.17760   0.77950   0.51390   0.05800  Uiso   1.00
C95    C     0.25880   0.89230   0.75509   0.01533  Uani   1.00
C96    C     0.18210   0.88850   0.72913   0.01571  Uani   1.00
C97    C     0.13520   0.98280   0.80946   0.01968  Uani   1.00
C98    C     0.13360   0.91860   0.75214   0.01768  Uani   1.00
C99    C     0.27630   0.18200   0.57900   0.06774  Uani   1.00
H100   H     0.30200   0.28460   0.59730   0.08100  Uiso   1.00
C101   C     0.24580   0.17460   0.51840   0.02435  Uani   1.00
C102   C     0.20730   0.02200   0.49550   0.05520  Uani   1.00
H103   H     0.18380   0.01110   0.45490   0.06600  Uiso   1.00
C104   C     0.92440   0.60520   0.54490   0.02916  Uani   1.00
H105   H     0.88640   0.53470   0.54170   0.03500  Uiso   1.00
C106   C     0.99070   0.76030   0.49940   0.02672  Uani   1.00
H107   H     0.99680   0.79700   0.46590   0.03200  Uiso   1.00
C108   C     0.97160   0.65940   0.59990   0.03015  Uani   1.00
H109   H     0.96450   0.62790   0.63340   0.03600  Uiso   1.00
C110   C     0.93380   0.65620   0.49394   0.02297  Uani   1.00
C111   C     0.88450   0.59200   0.43534   0.02413  Uani   1.00
Co112  Co    0.72416   0.18294   0.64760   0.01426  Uani   1.00
O113   O     0.68713   0.55510   0.84834   0.02133  Uani   1.00
O114   O     0.57971   0.45490   0.81672   0.03251  Uani   1.00
O115   O     0.79084   0.46120   0.80524   0.02335  Uani   1.00
O116   O     0.78840   0.32230   0.72518   0.02192  Uani   1.00
O117   O     0.34113   0.97290   0.42903   0.02290  Uani   1.00
O118   O     0.39300   0.17300   0.39126   0.04811  Uani   1.00
H119   H     0.37650   0.10870   0.36180   0.07200  Uiso   1.00
H120   H     0.53440   0.01250   0.75050   0.08800  Uiso   1.00
N121   N     0.65010   0.32220   0.67260   0.01721  Uani   1.00
N122   N     0.57052   0.36970   0.70948   0.02260  Uani   1.00
N123   N     0.73235   0.38960   0.59001   0.02113  Uani   1.00
C124   C     0.52930   0.26010   0.60526   0.02223  Uani   1.00
C125   C     0.76950   0.54200   0.61220   0.05979  Uani   1.00
H126   H     0.79190   0.55200   0.65290   0.07100  Uiso   1.00
C127   C     0.53870   0.31030   0.55450   0.02705  Uani   1.00
H128   H     0.57740   0.37770   0.55770   0.03200  Uiso   1.00
C129   C     0.58360   0.31510   0.66278   0.02081  Uani   1.00
C130   C     0.70290   0.38360   0.53150   0.04807  Uani   1.00
H131   H     0.67760   0.27950   0.51390   0.05800  Uiso   1.00
C132   C     0.75880   0.39230   0.75509   0.01533  Uani   1.00
C133   C     0.68210   0.38850   0.72913   0.01571  Uani   1.00
C134   C     0.63520   0.48280   0.80946   0.01968  Uani   1.00
C135   C     0.63360   0.41860   0.75214   0.01768  Uani   1.00
C136   C     0.77630   0.68200   0.57900   0.06774  Uani   1.00
H137   H     0.80200   0.78460   0.59730   0.08100  Uiso   1.00
C138   C     0.74580   0.67460   0.51840   0.02435  Uani   1.00
C139   C     0.70730   0.52200   0.49550   0.05520  Uani   1.00
H140   H     0.68380   0.51110   0.45490   0.06600  Uiso   1.00
C141   C     0.42440   0.10520   0.54490   0.02916  Uani   1.00
H142   H     0.38640   0.03470   0.54170   0.03500  Uiso   1.00
C143   C     0.49070   0.26030   0.49940   0.02672  Uani   1.00
H144   H     0.49680   0.29700   0.46590   0.03200  Uiso   1.00
C145   C     0.47160   0.15940   0.59990   0.03015  Uani   1.00
H146   H     0.46450   0.12790   0.63340   0.03600  Uiso   1.00
C147   C     0.43380   0.15620   0.49394   0.02297  Uani   1.00
C148   C     0.38450   0.09200   0.43534   0.02413  Uani   1.00
Co149  Co    0.22416   0.31706   0.14760   0.01426  Uani   1.00
O150   O     0.18713   0.94490   0.34834   0.02133  Uani   1.00
O151   O     0.07971   0.04510   0.31672   0.03251  Uani   1.00
O152   O     0.29084   0.03880   0.30524   0.02335  Uani   1.00
O153   O     0.28840   0.17770   0.22518   0.02192  Uani   1.00
O154   O     0.84113   0.52710   0.92903   0.02290  Uani   1.00
O155   O     0.89300   0.32700   0.89126   0.04811  Uani   1.00
H156   H     0.87650   0.39130   0.86180   0.07200  Uiso   1.00
H157   H     0.03440   0.48750   0.25050   0.08800  Uiso   1.00
N158   N     0.15010   0.17780   0.17260   0.01721  Uani   1.00
N159   N     0.07052   0.13030   0.20948   0.02260  Uani   1.00
N160   N     0.23235   0.11040   0.09001   0.02113  Uani   1.00
C161   C     0.02930   0.23990   0.10526   0.02223  Uani   1.00
C162   C     0.26950   0.95800   0.11220   0.05979  Uani   1.00
H163   H     0.29190   0.94800   0.15290   0.07100  Uiso   1.00
C164   C     0.03870   0.18970   0.05450   0.02705  Uani   1.00
H165   H     0.07740   0.12230   0.05770   0.03200  Uiso   1.00
C166   C     0.08360   0.18490   0.16278   0.02081  Uani   1.00
C167   C     0.20290   0.11640   0.03150   0.04807  Uani   1.00
H168   H     0.17760   0.22050   0.01390   0.05800  Uiso   1.00
C169   C     0.25880   0.10770   0.25509   0.01533  Uani   1.00
C170   C     0.18210   0.11150   0.22913   0.01571  Uani   1.00
C171   C     0.13520   0.01720   0.30946   0.01968  Uani   1.00
C172   C     0.13360   0.08140   0.25214   0.01768  Uani   1.00
C173   C     0.27630   0.81800   0.07900   0.06774  Uani   1.00
H174   H     0.30200   0.71540   0.09730   0.08100  Uiso   1.00
C175   C     0.24580   0.82540   0.01840   0.02435  Uani   1.00
C176   C     0.20730   0.97800   0.99550   0.05520  Uani   1.00
H177   H     0.18380   0.98890   0.95490   0.06600  Uiso   1.00
C178   C     0.92440   0.39480   0.04490   0.02916  Uani   1.00
H179   H     0.88640   0.46530   0.04170   0.03500  Uiso   1.00
C180   C     0.99070   0.23970   0.99940   0.02672  Uani   1.00
H181   H     0.99680   0.20300   0.96590   0.03200  Uiso   1.00
C182   C     0.97160   0.34060   0.09990   0.03015  Uani   1.00
H183   H     0.96450   0.37210   0.13340   0.03600  Uiso   1.00
C184   C     0.93380   0.34380   0.99394   0.02297  Uani   1.00
C185   C     0.88450   0.40800   0.93534   0.02413  Uani   1.00
Co186  Co    0.72416   0.81706   0.14760   0.01426  Uani   1.00
O187   O     0.68713   0.44490   0.34834   0.02133  Uani   1.00
O188   O     0.57971   0.54510   0.31672   0.03251  Uani   1.00
O189   O     0.79084   0.53880   0.30524   0.02335  Uani   1.00
O190   O     0.78840   0.67770   0.22518   0.02192  Uani   1.00
O191   O     0.34113   0.02710   0.92903   0.02290  Uani   1.00
O192   O     0.39300   0.82700   0.89126   0.04811  Uani   1.00
H193   H     0.37650   0.89130   0.86180   0.07200  Uiso   1.00
H194   H     0.53440   0.98750   0.25050   0.08800  Uiso   1.00
N195   N     0.65010   0.67780   0.17260   0.01721  Uani   1.00
N196   N     0.57052   0.63030   0.20948   0.02260  Uani   1.00
N197   N     0.73235   0.61040   0.09001   0.02113  Uani   1.00
C198   C     0.52930   0.73990   0.10526   0.02223  Uani   1.00
C199   C     0.76950   0.45800   0.11220   0.05979  Uani   1.00
H200   H     0.79190   0.44800   0.15290   0.07100  Uiso   1.00
C201   C     0.53870   0.68970   0.05450   0.02705  Uani   1.00
H202   H     0.57740   0.62230   0.05770   0.03200  Uiso   1.00
C203   C     0.58360   0.68490   0.16278   0.02081  Uani   1.00
C204   C     0.70290   0.61640   0.03150   0.04807  Uani   1.00
H205   H     0.67760   0.72050   0.01390   0.05800  Uiso   1.00
C206   C     0.75880   0.60770   0.25509   0.01533  Uani   1.00
C207   C     0.68210   0.61150   0.22913   0.01571  Uani   1.00
C208   C     0.63520   0.51720   0.30946   0.01968  Uani   1.00
C209   C     0.63360   0.58140   0.25214   0.01768  Uani   1.00
C210   C     0.77630   0.31800   0.07900   0.06774  Uani   1.00
H211   H     0.80200   0.21540   0.09730   0.08100  Uiso   1.00
C212   C     0.74580   0.32540   0.01840   0.02435  Uani   1.00
C213   C     0.70730   0.47800   0.99550   0.05520  Uani   1.00
H214   H     0.68380   0.48890   0.95490   0.06600  Uiso   1.00
C215   C     0.42440   0.89480   0.04490   0.02916  Uani   1.00
H216   H     0.38640   0.96530   0.04170   0.03500  Uiso   1.00
C217   C     0.49070   0.73970   0.99940   0.02672  Uani   1.00
H218   H     0.49680   0.70300   0.96590   0.03200  Uiso   1.00
C219   C     0.47160   0.84060   0.09990   0.03015  Uani   1.00
H220   H     0.46450   0.87210   0.13340   0.03600  Uiso   1.00
C221   C     0.43380   0.84380   0.99394   0.02297  Uani   1.00
C222   C     0.38450   0.90800   0.93534   0.02413  Uani   1.00
Co223  Co    0.77584   0.31706   0.35240   0.01426  Uani   1.00
O224   O     0.81287   0.94490   0.15166   0.02133  Uani   1.00
O225   O     0.92029   0.04510   0.18328   0.03251  Uani   1.00
O226   O     0.70916   0.03880   0.19476   0.02335  Uani   1.00
O227   O     0.71160   0.17770   0.27482   0.02192  Uani   1.00
O228   O     0.15887   0.52710   0.57097   0.02290  Uani   1.00
O229   O     0.10700   0.32700   0.60874   0.04811  Uani   1.00
H230   H     0.12350   0.39130   0.63820   0.07200  Uiso   1.00
H231   H     0.96560   0.48750   0.24950   0.08800  Uiso   1.00
N232   N     0.84990   0.17780   0.32740   0.01721  Uani   1.00
N233   N     0.92948   0.13030   0.29052   0.02260  Uani   1.00
N234   N     0.76765   0.11040   0.40999   0.02113  Uani   1.00
C235   C     0.97070   0.23990   0.39474   0.02223  Uani   1.00
C236   C     0.73050   0.95800   0.38780   0.05979  Uani   1.00
H237   H     0.70810   0.94800   0.34710   0.07100  Uiso   1.00
C238   C     0.96130   0.18970   0.44550   0.02705  Uani   1.00
H239   H     0.92260   0.12230   0.44230   0.03200  Uiso   1.00
C240   C     0.91640   0.18490   0.33722   0.02081  Uani   1.00
C241   C     0.79710   0.11640   0.46850   0.04807  Uani   1.00
H242   H     0.82240   0.22050   0.48610   0.05800  Uiso   1.00
C243   C     0.74120   0.10770   0.24491   0.01533  Uani   1.00
C244   C     0.81790   0.11150   0.27087   0.01571  Uani   1.00
C245   C     0.86480   0.01720   0.19054   0.01968  Uani   1.00
C246   C     0.86640   0.08140   0.24786   0.01768  Uani   1.00
C247   C     0.72370   0.81800   0.42100   0.06774  Uani   1.00
H248   H     0.69800   0.71540   0.40270   0.08100  Uiso   1.00
C249   C     0.75420   0.82540   0.48160   0.02435  Uani   1.00
C250   C     0.79270   0.97800   0.50450   0.05520  Uani   1.00
H251   H     0.81620   0.98890   0.54510   0.06600  Uiso   1.00
C252   C     0.07560   0.39480   0.45510   0.02916  Uani   1.00
H253   H     0.11360   0.46530   0.45830   0.03500  Uiso   1.00
C254   C     0.00930   0.23970   0.50060   0.02672  Uani   1.00
H255   H     0.00320   0.20300   0.53410   0.03200  Uiso   1.00
C256   C     0.02840   0.34060   0.40010   0.03015  Uani   1.00
H257   H     0.03550   0.37210   0.36660   0.03600  Uiso   1.00
C258   C     0.06620   0.34380   0.50606   0.02297  Uani   1.00
C259   C     0.11550   0.40800   0.56466   0.02413  Uani   1.00
Co260  Co    0.27584   0.81706   0.35240   0.01426  Uani   1.00
O261   O     0.31287   0.44490   0.15166   0.02133  Uani   1.00
O262   O     0.42029   0.54510   0.18328   0.03251  Uani   1.00
O263   O     0.20916   0.53880   0.19476   0.02335  Uani   1.00
O264   O     0.21160   0.67770   0.27482   0.02192  Uani   1.00
O265   O     0.65887   0.02710   0.57097   0.02290  Uani   1.00
O266   O     0.60700   0.82700   0.60874   0.04811  Uani   1.00
H267   H     0.62350   0.89130   0.63820   0.07200  Uiso   1.00
H268   H     0.46560   0.98750   0.24950   0.08800  Uiso   1.00
N269   N     0.34990   0.67780   0.32740   0.01721  Uani   1.00
N270   N     0.42948   0.63030   0.29052   0.02260  Uani   1.00
N271   N     0.26765   0.61040   0.40999   0.02113  Uani   1.00
C272   C     0.47070   0.73990   0.39474   0.02223  Uani   1.00
C273   C     0.23050   0.45800   0.38780   0.05979  Uani   1.00
H274   H     0.20810   0.44800   0.34710   0.07100  Uiso   1.00
C275   C     0.46130   0.68970   0.44550   0.02705  Uani   1.00
H276   H     0.42260   0.62230   0.44230   0.03200  Uiso   1.00
C277   C     0.41640   0.68490   0.33722   0.02081  Uani   1.00
C278   C     0.29710   0.61640   0.46850   0.04807  Uani   1.00
H279   H     0.32240   0.72050   0.48610   0.05800  Uiso   1.00
C280   C     0.24120   0.60770   0.24491   0.01533  Uani   1.00
C281   C     0.31790   0.61150   0.27087   0.01571  Uani   1.00
C282   C     0.36480   0.51720   0.19054   0.01968  Uani   1.00
C283   C     0.36640   0.58140   0.24786   0.01768  Uani   1.00
C284   C     0.22370   0.31800   0.42100   0.06774  Uani   1.00
H285   H     0.19800   0.21540   0.40270   0.08100  Uiso   1.00
C286   C     0.25420   0.32540   0.48160   0.02435  Uani   1.00
C287   C     0.29270   0.47800   0.50450   0.05520  Uani   1.00
H288   H     0.31620   0.48890   0.54510   0.06600  Uiso   1.00
C289   C     0.57560   0.89480   0.45510   0.02916  Uani   1.00
H290   H     0.61360   0.96530   0.45830   0.03500  Uiso   1.00
C291   C     0.50930   0.73970   0.50060   0.02672  Uani   1.00
H292   H     0.50320   0.70300   0.53410   0.03200  Uiso   1.00
C293   C     0.52840   0.84060   0.40010   0.03015  Uani   1.00
H294   H     0.53550   0.87210   0.36660   0.03600  Uiso   1.00
C295   C     0.56620   0.84380   0.50606   0.02297  Uani   1.00
C296   C     0.61550   0.90800   0.56466   0.02413  Uani   1.00
Co297  Co    0.00000   0.84904   0.75000   0.03529  Uani   1.00
O298   O     0.00000   0.57200   0.75000   0.05877  Uani   1.00
Co299  Co    0.50000   0.34904   0.75000   0.03529  Uani   1.00
O300   O     0.50000   0.07200   0.75000   0.05877  Uani   1.00
Co301  Co    0.00000   0.15096   0.25000   0.03529  Uani   1.00
O302   O     0.00000   0.42800   0.25000   0.05877  Uani   1.00
Co303  Co    0.50000   0.65096   0.25000   0.03529  Uani   1.00
O304   O     0.50000   0.92800   0.25000   0.05877  Uani   1.00
loop_
_atom_site_aniso_label
_atom_site_aniso_U_11
_atom_site_aniso_U_22
_atom_site_aniso_U_33
_atom_site_aniso_U_12
_atom_site_aniso_U_13
_atom_site_aniso_U_23
Co1       0.01520   0.01720   0.01020   0.00030   0.00490   0.00047
O2        0.02120   0.02850   0.01420   0.00660   0.00700   0.00240
O3        0.02240   0.05500   0.02260   0.01340   0.01160   0.01340
O4        0.02020   0.02950   0.01360  -0.00390  -0.00030   0.00700
O5        0.01790   0.02970   0.01750   0.00060   0.00640   0.00760
O6        0.02180   0.02510   0.01560   0.00550   0.00100   0.00220
O7        0.04600   0.06200   0.01970   0.02800  -0.00430  -0.00550
N10       0.01510   0.02520   0.00910  -0.00100   0.00250   0.00410
N11       0.01630   0.03300   0.02030   0.00130   0.00920   0.00650
N12       0.02750   0.02060   0.01780   0.00060   0.01170  -0.00070
C13       0.01510   0.02700   0.02000  -0.00090   0.00220   0.00600
C14       0.11600   0.04100   0.01700   0.03500   0.02100   0.00500
C16       0.02200   0.03200   0.02200   0.00410   0.00340   0.00050
C18       0.02000   0.02500   0.01800   0.00190   0.00820   0.00500
C19       0.06800   0.04300   0.02500   0.03200   0.01000  -0.00100
C21       0.01560   0.01650   0.01100   0.00080   0.00230   0.00060
C22       0.01510   0.02000   0.01000  -0.00030   0.00290   0.00230
C23       0.02200   0.02300   0.01540   0.00130   0.00890   0.00040
C24       0.01510   0.02200   0.01490   0.00300   0.00490   0.00230
C25       0.13700   0.03700   0.02100   0.04300   0.02300   0.00900
C27       0.02900   0.02400   0.02300  -0.00090   0.01350  -0.00280
C28       0.07700   0.05700   0.01900   0.03700   0.00600  -0.00500
C30       0.02000   0.03800   0.02500   0.00700   0.00430   0.00400
C32       0.02900   0.02700   0.01900   0.00420   0.00420   0.00080
C34       0.02600   0.04400   0.01900   0.00900   0.00750   0.00700
C36       0.02200   0.02200   0.01900  -0.00210   0.00200   0.00290
C37       0.02100   0.02600   0.01900  -0.00100   0.00130  -0.00180
Co38      0.01520   0.01720   0.01020   0.00030   0.00490   0.00047
O39       0.02120   0.02850   0.01420   0.00660   0.00700   0.00240
O40       0.02240   0.05500   0.02260   0.01340   0.01160   0.01340
O41       0.02020   0.02950   0.01360  -0.00390  -0.00030   0.00700
O42       0.01790   0.02970   0.01750   0.00060   0.00640   0.00760
O43       0.02180   0.02510   0.01560   0.00550   0.00100   0.00220
O44       0.04600   0.06200   0.01970   0.02800  -0.00430  -0.00550
N47       0.01510   0.02520   0.00910  -0.00100   0.00250   0.00410
N48       0.01630   0.03300   0.02030   0.00130   0.00920   0.00650
N49       0.02750   0.02060   0.01780   0.00060   0.01170  -0.00070
C50       0.01510   0.02700   0.02000  -0.00090   0.00220   0.00600
C51       0.11600   0.04100   0.01700   0.03500   0.02100   0.00500
C53       0.02200   0.03200   0.02200   0.00410   0.00340   0.00050
C55       0.02000   0.02500   0.01800   0.00190   0.00820   0.00500
C56       0.06800   0.04300   0.02500   0.03200   0.01000  -0.00100
C58       0.01560   0.01650   0.01100   0.00080   0.00230   0.00060
C59       0.01510   0.02000   0.01000  -0.00030   0.00290   0.00230
C60       0.02200   0.02300   0.01540   0.00130   0.00890   0.00040
C61       0.01510   0.02200   0.01490   0.00300   0.00490   0.00230
C62       0.13700   0.03700   0.02100   0.04300   0.02300   0.00900
C64       0.02900   0.02400   0.02300  -0.00090   0.01350  -0.00280
C65       0.07700   0.05700   0.01900   0.03700   0.00600  -0.00500
C67       0.02000   0.03800   0.02500   0.00700   0.00430   0.00400
C69       0.02900   0.02700   0.01900   0.00420   0.00420   0.00080
C71       0.02600   0.04400   0.01900   0.00900   0.00750   0.00700
C73       0.02200   0.02200   0.01900  -0.00210   0.00200   0.00290
C74       0.02100   0.02600   0.01900  -0.00100   0.00130  -0.00180
Co75      0.01520   0.01720   0.01020  -0.00030   0.00490  -0.00047
O76       0.02120   0.02850   0.01420  -0.00660   0.00700  -0.00240
O77       0.02240   0.05500   0.02260  -0.01340   0.01160  -0.01340
O78       0.02020   0.02950   0.01360   0.00390  -0.00030  -0.00700
O79       0.01790   0.02970   0.01750  -0.00060   0.00640  -0.00760
O80       0.02180   0.02510   0.01560  -0.00550   0.00100  -0.00220
O81       0.04600   0.06200   0.01970  -0.02800  -0.00430   0.00550
N84       0.01510   0.02520   0.00910   0.00100   0.00250  -0.00410
N85       0.01630   0.03300   0.02030  -0.00130   0.00920  -0.00650
N86       0.02750   0.02060   0.01780  -0.00060   0.01170   0.00070
C87       0.01510   0.02700   0.02000   0.00090   0.00220  -0.00600
C88       0.11600   0.04100   0.01700  -0.03500   0.02100  -0.00500
C90       0.02200   0.03200   0.02200  -0.00410   0.00340  -0.00050
C92       0.02000   0.02500   0.01800  -0.00190   0.00820  -0.00500
C93       0.06800   0.04300   0.02500  -0.03200   0.01000   0.00100
C95       0.01560   0.01650   0.01100  -0.00080   0.00230  -0.00060
C96       0.01510   0.02000   0.01000   0.00030   0.00290  -0.00230
C97       0.02200   0.02300   0.01540  -0.00130   0.00890  -0.00040
C98       0.01510   0.02200   0.01490  -0.00300   0.00490  -0.00230
C99       0.13700   0.03700   0.02100  -0.04300   0.02300  -0.00900
C101      0.02900   0.02400   0.02300   0.00090   0.01350   0.00280
C102      0.07700   0.05700   0.01900  -0.03700   0.00600   0.00500
C104      0.02000   0.03800   0.02500  -0.00700   0.00430  -0.00400
C106      0.02900   0.02700   0.01900  -0.00420   0.00420  -0.00080
C108      0.02600   0.04400   0.01900  -0.00900   0.00750  -0.00700
C110      0.02200   0.02200   0.01900   0.00210   0.00200  -0.00290
C111      0.02100   0.02600   0.01900   0.00100   0.00130   0.00180
Co112     0.01520   0.01720   0.01020  -0.00030   0.00490  -0.00047
O113      0.02120   0.02850   0.01420  -0.00660   0.00700  -0.00240
O114      0.02240   0.05500   0.02260  -0.01340   0.01160  -0.01340
O115      0.02020   0.02950   0.01360   0.00390  -0.00030  -0.00700
O116      0.01790   0.02970   0.01750  -0.00060   0.00640  -0.00760
O117      0.02180   0.02510   0.01560  -0.00550   0.00100  -0.00220
O118      0.04600   0.06200   0.01970  -0.02800  -0.00430   0.00550
N121      0.01510   0.02520   0.00910   0.00100   0.00250  -0.00410
N122      0.01630   0.03300   0.02030  -0.00130   0.00920  -0.00650
N123      0.02750   0.02060   0.01780  -0.00060   0.01170   0.00070
C124      0.01510   0.02700   0.02000   0.00090   0.00220  -0.00600
C125      0.11600   0.04100   0.01700  -0.03500   0.02100  -0.00500
C127      0.02200   0.03200   0.02200  -0.00410   0.00340  -0.00050
C129      0.02000   0.02500   0.01800  -0.00190   0.00820  -0.00500
C130      0.06800   0.04300   0.02500  -0.03200   0.01000   0.00100
C132      0.01560   0.01650   0.01100  -0.00080   0.00230  -0.00060
C133      0.01510   0.02000   0.01000   0.00030   0.00290  -0.00230
C134      0.02200   0.02300   0.01540  -0.00130   0.00890  -0.00040
C135      0.01510   0.02200   0.01490  -0.00300   0.00490  -0.00230
C136      0.13700   0.03700   0.02100  -0.04300   0.02300  -0.00900
C138      0.02900   0.02400   0.02300   0.00090   0.01350   0.00280
C139      0.07700   0.05700   0.01900  -0.03700   0.00600   0.00500
C141      0.02000   0.03800   0.02500  -0.00700   0.00430  -0.00400
C143      0.02900   0.02700   0.01900  -0.00420   0.00420  -0.00080
C145      0.02600   0.04400   0.01900  -0.00900   0.00750  -0.00700
C147      0.02200   0.02200   0.01900   0.00210   0.00200  -0.00290
C148      0.02100   0.02600   0.01900   0.00100   0.00130   0.00180
Co149     0.01520   0.01720   0.01020   0.00030   0.00490   0.00047
O150      0.02120   0.02850   0.01420   0.00660   0.00700   0.00240
O151      0.02240   0.05500   0.02260   0.01340   0.01160   0.01340
O152      0.02020   0.02950   0.01360  -0.00390  -0.00030   0.00700
O153      0.01790   0.02970   0.01750   0.00060   0.00640   0.00760
O154      0.02180   0.02510   0.01560   0.00550   0.00100   0.00220
O155      0.04600   0.06200   0.01970   0.02800  -0.00430  -0.00550
N158      0.01510   0.02520   0.00910  -0.00100   0.00250   0.00410
N159      0.01630   0.03300   0.02030   0.00130   0.00920   0.00650
N160      0.02750   0.02060   0.01780   0.00060   0.01170  -0.00070
C161      0.01510   0.02700   0.02000  -0.00090   0.00220   0.00600
C162      0.11600   0.04100   0.01700   0.03500   0.02100   0.00500
C164      0.02200   0.03200   0.02200   0.00410   0.00340   0.00050
C166      0.02000   0.02500   0.01800   0.00190   0.00820   0.00500
C167      0.06800   0.04300   0.02500   0.03200   0.01000  -0.00100
C169      0.01560   0.01650   0.01100   0.00080   0.00230   0.00060
C170      0.01510   0.02000   0.01000  -0.00030   0.00290   0.00230
C171      0.02200   0.02300   0.01540   0.00130   0.00890   0.00040
C172      0.01510   0.02200   0.01490   0.00300   0.00490   0.00230
C173      0.13700   0.03700   0.02100   0.04300   0.02300   0.00900
C175      0.02900   0.02400   0.02300  -0.00090   0.01350  -0.00280
C176      0.07700   0.05700   0.01900   0.03700   0.00600  -0.00500
C178      0.02000   0.03800   0.02500   0.00700   0.00430   0.00400
C180      0.02900   0.02700   0.01900   0.00420   0.00420   0.00080
C182      0.02600   0.04400   0.01900   0.00900   0.00750   0.00700
C184      0.02200   0.02200   0.01900  -0.00210   0.00200   0.00290
C185      0.02100   0.02600   0.01900  -0.00100   0.00130  -0.00180
Co186     0.01520   0.01720   0.01020   0.00030   0.00490   0.00047
O187      0.02120   0.02850   0.01420   0.00660   0.00700   0.00240
O188      0.02240   0.05500   0.02260   0.01340   0.01160   0.01340
O189      0.02020   0.02950   0.01360  -0.00390  -0.00030   0.00700
O190      0.01790   0.02970   0.01750   0.00060   0.00640   0.00760
O191      0.02180   0.02510   0.01560   0.00550   0.00100   0.00220
O192      0.04600   0.06200   0.01970   0.02800  -0.00430  -0.00550
N195      0.01510   0.02520   0.00910  -0.00100   0.00250   0.00410
N196      0.01630   0.03300   0.02030   0.00130   0.00920   0.00650
N197      0.02750   0.02060   0.01780   0.00060   0.01170  -0.00070
C198      0.01510   0.02700   0.02000  -0.00090   0.00220   0.00600
C199      0.11600   0.04100   0.01700   0.03500   0.02100   0.00500
C201      0.02200   0.03200   0.02200   0.00410   0.00340   0.00050
C203      0.02000   0.02500   0.01800   0.00190   0.00820   0.00500
C204      0.06800   0.04300   0.02500   0.03200   0.01000  -0.00100
C206      0.01560   0.01650   0.01100   0.00080   0.00230   0.00060
C207      0.01510   0.02000   0.01000  -0.00030   0.00290   0.00230
C208      0.02200   0.02300   0.01540   0.00130   0.00890   0.00040
C209      0.01510   0.02200   0.01490   0.00300   0.00490   0.00230
C210      0.13700   0.03700   0.02100   0.04300   0.02300   0.00900
C212      0.02900   0.02400   0.02300  -0.00090   0.01350  -0.00280
C213      0.07700   0.05700   0.01900   0.03700   0.00600  -0.00500
C215      0.02000   0.03800   0.02500   0.00700   0.00430   0.00400
C217      0.02900   0.02700   0.01900   0.00420   0.00420   0.00080
C219      0.02600   0.04400   0.01900   0.00900   0.00750   0.00700
C221      0.02200   0.02200   0.01900  -0.00210   0.00200   0.00290
C222      0.02100   0.02600   0.01900  -0.00100   0.00130  -0.00180
Co223     0.01520   0.01720   0.01020  -0.00030   0.00490  -0.00047
O224      0.02120   0.02850   0.01420  -0.00660   0.00700  -0.00240
O225      0.02240   0.05500   0.02260  -0.01340   0.01160  -0.01340
O226      0.02020   0.02950   0.01360   0.00390  -0.00030  -0.00700
O227      0.01790   0.02970   0.01750  -0.00060   0.00640  -0.00760
O228      0.02180   0.02510   0.01560  -0.00550   0.00100  -0.00220
O229      0.04600   0.06200   0.01970  -0.02800  -0.00430   0.00550
N232      0.01510   0.02520   0.00910   0.00100   0.00250  -0.00410
N233      0.01630   0.03300   0.02030  -0.00130   0.00920  -0.00650
N234      0.02750   0.02060   0.01780  -0.00060   0.01170   0.00070
C235      0.01510   0.02700   0.02000   0.00090   0.00220  -0.00600
C236      0.11600   0.04100   0.01700  -0.03500   0.02100  -0.00500
C238      0.02200   0.03200   0.02200  -0.00410   0.00340  -0.00050
C240      0.02000   0.02500   0.01800  -0.00190   0.00820  -0.00500
C241      0.06800   0.04300   0.02500  -0.03200   0.01000   0.00100
C243      0.01560   0.01650   0.01100  -0.00080   0.00230  -0.00060
C244      0.01510   0.02000   0.01000   0.00030   0.00290  -0.00230
C245      0.02200   0.02300   0.01540  -0.00130   0.00890  -0.00040
C246      0.01510   0.02200   0.01490  -0.00300   0.00490  -0.00230
C247      0.13700   0.03700   0.02100  -0.04300   0.02300  -0.00900
C249      0.02900   0.02400   0.02300   0.00090   0.01350   0.00280
C250      0.07700   0.05700   0.01900  -0.03700   0.00600   0.00500
C252      0.02000   0.03800   0.02500  -0.00700   0.00430  -0.00400
C254      0.02900   0.02700   0.01900  -0.00420   0.00420  -0.00080
C256      0.02600   0.04400   0.01900  -0.00900   0.00750  -0.00700
C258      0.02200   0.02200   0.01900   0.00210   0.00200  -0.00290
C259      0.02100   0.02600   0.01900   0.00100   0.00130   0.00180
Co260     0.01520   0.01720   0.01020  -0.00030   0.00490  -0.00047
O261      0.02120   0.02850   0.01420  -0.00660   0.00700  -0.00240
O262      0.02240   0.05500   0.02260  -0.01340   0.01160  -0.01340
O263      0.02020   0.02950   0.01360   0.00390  -0.00030  -0.00700
O264      0.01790   0.02970   0.01750  -0.00060   0.00640  -0.00760
O265      0.02180   0.02510   0.01560  -0.00550   0.00100  -0.00220
O266      0.04600   0.06200   0.01970  -0.02800  -0.00430   0.00550
N269      0.01510   0.02520   0.00910   0.00100   0.00250  -0.00410
N270      0.01630   0.03300   0.02030  -0.00130   0.00920  -0.00650
N271      0.02750   0.02060   0.01780  -0.00060   0.01170   0.00070
C272      0.01510   0.02700   0.02000   0.00090   0.00220  -0.00600
C273      0.11600   0.04100   0.01700  -0.03500   0.02100  -0.00500
C275      0.02200   0.03200   0.02200  -0.00410   0.00340  -0.00050
C277      0.02000   0.02500   0.01800  -0.00190   0.00820  -0.00500
C278      0.06800   0.04300   0.02500  -0.03200   0.01000   0.00100
C280      0.01560   0.01650   0.01100  -0.00080   0.00230  -0.00060
C281      0.01510   0.02000   0.01000   0.00030   0.00290  -0.00230
C282      0.02200   0.02300   0.01540  -0.00130   0.00890  -0.00040
C283      0.01510   0.02200   0.01490  -0.00300   0.00490  -0.00230
C284      0.13700   0.03700   0.02100  -0.04300   0.02300  -0.00900
C286      0.02900   0.02400   0.02300   0.00090   0.01350   0.00280
C287      0.07700   0.05700   0.01900  -0.03700   0.00600   0.00500
C289      0.02000   0.03800   0.02500  -0.00700   0.00430  -0.00400
C291      0.02900   0.02700   0.01900  -0.00420   0.00420  -0.00080
C293      0.02600   0.04400   0.01900  -0.00900   0.00750  -0.00700
C295      0.02200   0.02200   0.01900   0.00210   0.00200  -0.00290
C296      0.02100   0.02600   0.01900   0.00100   0.00130   0.00180
Co297     0.02560   0.04470   0.03400   0.00000   0.01030   0.00000
O298      0.06000   0.04200   0.08400   0.00000   0.03900   0.00000
Co299     0.02560   0.04470   0.03400   0.00000   0.01030   0.00000
O300      0.06000   0.04200   0.08400   0.00000   0.03900   0.00000
Co301     0.02560   0.04470   0.03400   0.00000   0.01030   0.00000
O302      0.06000   0.04200   0.08400   0.00000   0.03900   0.00000
Co303     0.02560   0.04470   0.03400   0.00000   0.01030   0.00000
O304      0.06000   0.04200   0.08400   0.00000   0.03900   0.00000
loop_
_geom_bond_atom_site_label_1
_geom_bond_atom_site_label_2
_geom_bond_distance
_geom_bond_site_symmetry_2
_ccdc_geom_bond_type
Co1    O5      2.117   .     S
Co1    N10     2.153   .     S
Co1    N12     2.130   .     S
Co1    O113    2.058   .     S
Co1    O115    2.093   .     S
Co1    O154    2.169   .     S
O2     C23     1.250   1_545 S
O2     Co112   2.058   .     S
O3     Co297   1.983   1_655 S
O3     C23     1.270   .     S
O4     C21     1.258   .     S
O4     Co112   2.093   1_565 S
O5     C21     1.254   .     S
O6     C37     1.226   .     S
O6     Co149   2.169   .     S
O7     H8      0.819   .     S
O7     C37     1.316   .     S
H9     O298    0.842   1_655 S
N10    C18     1.326   .     S
N10    C22     1.377   .     S
N11    Co297   2.108   1_655 S
N11    C24     1.375   .     S
N11    C18     1.353   .     S
N12    C14     1.345   1_565 S
N12    C19     1.331   .     S
C13    C16     1.399   .     S
C13    C34     1.382   1_655 S
C13    C18     1.483   .     S
C14    N12     1.345   1_545 S
C14    H15     0.930   .     S
C14    C25     1.355   .     S
C16    H17     0.929   .     S
C16    C32     1.385   1_656 S
C19    H20     0.930   .     S
C19    C28     1.375   1_566 S
C21    C22     1.484   .     S
C22    C24     1.374   .     S
C23    O2      1.250   1_565 S
C23    C24     1.484   .     S
C25    H26     0.929   .     S
C25    C27     1.378   .     S
C27    C212    1.484   1_556 S
C27    C28     1.361   1_556 S
C28    C19     1.375   1_544 S
C28    H29     0.930   .     S
C28    C27     1.361   1_554 S
C30    H31     0.929   .     S
C30    C36     1.405   1_556 S
C30    C34     1.386   .     S
C32    C16     1.385   1_454 S
C32    H33     0.929   .     S
C32    C36     1.381   .     S
C34    C13     1.382   1_455 S
C34    H35     0.930   .     S
C36    C30     1.405   1_554 S
C36    C37     1.484   .     S
Co38   O42     2.117   .     S
Co38   N47     2.153   .     S
Co38   N49     2.130   .     S
Co38   O76     2.058   .     S
Co38   O78     2.093   1_545 S
Co38   O191    2.169   .     S
O39    C60     1.250   .     S
O39    Co75    2.058   .     S
O40    Co299   1.983   .     S
O40    C60     1.270   .     S
O41    C58     1.258   .     S
O41    Co75    2.093   .     S
O42    C58     1.254   .     S
O43    C74     1.226   1_565 S
O43    Co186   2.169   .     S
O44    H45     0.819   .     S
O44    C74     1.316   .     S
H46    O300    0.842   .     S
N47    C55     1.326   .     S
N47    C59     1.377   .     S
N48    Co299   2.108   .     S
N48    C61     1.375   .     S
N48    C55     1.353   .     S
N49    C51     1.345   .     S
N49    C56     1.331   .     S
C50    C53     1.399   .     S
C50    C71     1.382   .     S
C50    C55     1.483   .     S
C51    H52     0.930   .     S
C51    C62     1.355   .     S
C53    H54     0.929   .     S
C53    C69     1.385   1_556 S
C56    H57     0.930   .     S
C56    C65     1.375   1_556 S
C58    C59     1.484   .     S
C59    C61     1.374   .     S
C60    C61     1.484   .     S
C62    H63     0.929   .     S
C62    C64     1.378   .     S
C64    C175    1.484   1_556 S
C64    C65     1.361   1_556 S
C65    C56     1.375   1_554 S
C65    H66     0.930   .     S
C65    C64     1.361   1_554 S
C67    H68     0.929   .     S
C67    C73     1.405   1_556 S
C67    C71     1.386   .     S
C69    C53     1.385   1_554 S
C69    H70     0.929   .     S
C69    C73     1.381   .     S
C71    H72     0.930   .     S
C73    C67     1.405   1_554 S
C73    C74     1.484   .     S
C74    O43     1.226   1_545 S
Co75   O79     2.117   .     S
Co75   N84     2.153   .     S
Co75   N86     2.130   .     S
Co75   O228    2.169   .     S
O76    C97     1.250   1_545 S
O77    Co297   1.983   .     S
O77    C97     1.270   .     S
O78    C95     1.258   .     S
O78    Co38    2.093   1_565 S
O79    C95     1.254   .     S
O80    C111    1.226   .     S
O80    Co223   2.169   .     S
O81    H82     0.819   .     S
O81    C111    1.316   .     S
H83    O298    0.842   .     S
N84    C92     1.326   .     S
N84    C96     1.377   .     S
N85    Co297   2.108   .     S
N85    C98     1.375   .     S
N85    C92     1.353   .     S
N86    C88     1.345   1_565 S
N86    C93     1.331   .     S
C87    C90     1.399   .     S
C87    C108    1.382   1_455 S
C87    C92     1.483   .     S
C88    N86     1.345   1_545 S
C88    H89     0.930   .     S
C88    C99     1.355   .     S
C90    H91     0.929   .     S
C90    C106    1.385   1_455 S
C93    H94     0.930   .     S
C93    C102    1.375   1_565 S
C95    C96     1.484   .     S
C96    C98     1.374   .     S
C97    O76     1.250   1_565 S
C97    C98     1.484   .     S
C99    H100    0.929   .     S
C99    C101    1.378   .     S
C101   C286    1.484   .     S
C101   C102    1.361   .     S
C102   C93     1.375   1_545 S
C102   H103    0.930   .     S
C104   H105    0.929   .     S
C104   C110    1.405   .     S
C104   C108    1.386   .     S
C106   C90     1.385   1_655 S
C106   H107    0.929   .     S
C106   C110    1.381   .     S
C108   C87     1.382   1_655 S
C108   H109    0.930   .     S
C110   C111    1.484   .     S
Co112  O116    2.117   .     S
Co112  N121    2.153   .     S
Co112  N123    2.130   .     S
Co112  O4      2.093   1_545 S
Co112  O265    2.169   .     S
O113   C134    1.250   .     S
O114   Co299   1.983   .     S
O114   C134    1.270   .     S
O115   C132    1.258   .     S
O116   C132    1.254   .     S
O117   C148    1.226   1_565 S
O117   Co260   2.169   .     S
O118   H119    0.819   .     S
O118   C148    1.316   .     S
H120   O300    0.842   .     S
N121   C129    1.326   .     S
N121   C133    1.377   .     S
N122   Co299   2.108   .     S
N122   C135    1.375   .     S
N122   C129    1.353   .     S
N123   C125    1.345   .     S
N123   C130    1.331   .     S
C124   C127    1.399   .     S
C124   C145    1.382   .     S
C124   C129    1.483   .     S
C125   H126    0.930   .     S
C125   C136    1.355   .     S
C127   H128    0.929   .     S
C127   C143    1.385   .     S
C130   H131    0.930   .     S
C130   C139    1.375   .     S
C132   C133    1.484   .     S
C133   C135    1.374   .     S
C134   C135    1.484   .     S
C136   H137    0.929   .     S
C136   C138    1.378   .     S
C138   C249    1.484   .     S
C138   C139    1.361   .     S
C139   H140    0.930   .     S
C141   H142    0.929   .     S
C141   C147    1.405   .     S
C141   C145    1.386   .     S
C143   H144    0.929   .     S
C143   C147    1.381   .     S
C145   H146    0.930   .     S
C147   C148    1.484   .     S
C148   O117    1.226   1_545 S
Co149  O153    2.117   .     S
Co149  N158    2.153   .     S
Co149  N160    2.130   .     S
Co149  O261    2.058   .     S
Co149  O263    2.093   .     S
O150   C171    1.250   1_565 S
O150   Co260   2.058   .     S
O151   Co301   1.983   .     S
O151   C171    1.270   .     S
O152   C169    1.258   .     S
O152   Co260   2.093   1_545 S
O153   C169    1.254   .     S
O154   C185    1.226   .     S
O155   H156    0.819   .     S
O155   C185    1.316   .     S
H157   O302    0.842   .     S
N158   C166    1.326   .     S
N158   C170    1.377   .     S
N159   Co301   2.108   .     S
N159   C172    1.375   .     S
N159   C166    1.353   .     S
N160   C162    1.345   1_545 S
N160   C167    1.331   .     S
C161   C164    1.399   .     S
C161   C182    1.382   1_455 S
C161   C166    1.483   .     S
C162   N160    1.345   1_565 S
C162   H163    0.930   .     S
C162   C173    1.355   .     S
C164   H165    0.929   .     S
C164   C180    1.385   1_454 S
C167   H168    0.930   .     S
C167   C176    1.375   1_544 S
C169   C170    1.484   .     S
C170   C172    1.374   .     S
C171   O150    1.250   1_545 S
C171   C172    1.484   .     S
C173   H174    0.929   .     S
C173   C175    1.378   .     S
C175   C64     1.484   1_554 S
C175   C176    1.361   1_554 S
C176   C167    1.375   1_566 S
C176   H177    0.930   .     S
C176   C175    1.361   1_556 S
C178   H179    0.929   .     S
C178   C184    1.405   1_554 S
C178   C182    1.386   .     S
C180   C164    1.385   1_656 S
C180   H181    0.929   .     S
C180   C184    1.381   .     S
C182   C161    1.382   1_655 S
C182   H183    0.930   .     S
C184   C178    1.405   1_556 S
C184   C185    1.484   .     S
Co186  O190    2.117   .     S
Co186  N195    2.153   .     S
Co186  N197    2.130   .     S
Co186  O224    2.058   .     S
Co186  O226    2.093   1_565 S
O187   C208    1.250   .     S
O187   Co223   2.058   .     S
O188   Co303   1.983   .     S
O188   C208    1.270   .     S
O189   C206    1.258   .     S
O189   Co223   2.093   .     S
O190   C206    1.254   .     S
O191   C222    1.226   1_545 S
O192   H193    0.819   .     S
O192   C222    1.316   .     S
H194   O304    0.842   .     S
N195   C203    1.326   .     S
N195   C207    1.377   .     S
N196   Co303   2.108   .     S
N196   C209    1.375   .     S
N196   C203    1.353   .     S
N197   C199    1.345   .     S
N197   C204    1.331   .     S
C198   C201    1.399   .     S
C198   C219    1.382   .     S
C198   C203    1.483   .     S
C199   H200    0.930   .     S
C199   C210    1.355   .     S
C201   H202    0.929   .     S
C201   C217    1.385   1_554 S
C204   H205    0.930   .     S
C204   C213    1.375   1_554 S
C206   C207    1.484   .     S
C207   C209    1.374   .     S
C208   C209    1.484   .     S
C210   H211    0.929   .     S
C210   C212    1.378   .     S
C212   C27     1.484   1_554 S
C212   C213    1.361   1_554 S
C213   C204    1.375   1_556 S
C213   H214    0.930   .     S
C213   C212    1.361   1_556 S
C215   H216    0.929   .     S
C215   C221    1.405   1_554 S
C215   C219    1.386   .     S
C217   C201    1.385   1_556 S
C217   H218    0.929   .     S
C217   C221    1.381   .     S
C219   H220    0.930   .     S
C221   C215    1.405   1_556 S
C221   C222    1.484   .     S
C222   O191    1.226   1_565 S
Co223  O227    2.117   .     S
Co223  N232    2.153   .     S
Co223  N234    2.130   .     S
O224   C245    1.250   1_565 S
O225   Co301   1.983   1_655 S
O225   C245    1.270   .     S
O226   C243    1.258   .     S
O226   Co186   2.093   1_545 S
O227   C243    1.254   .     S
O228   C259    1.226   .     S
O229   H230    0.819   .     S
O229   C259    1.316   .     S
H231   O302    0.842   1_655 S
N232   C240    1.326   .     S
N232   C244    1.377   .     S
N233   Co301   2.108   1_655 S
N233   C246    1.375   .     S
N233   C240    1.353   .     S
N234   C236    1.345   1_545 S
N234   C241    1.331   .     S
C235   C238    1.399   .     S
C235   C256    1.382   1_655 S
C235   C240    1.483   .     S
C236   N234    1.345   1_565 S
C236   H237    0.930   .     S
C236   C247    1.355   .     S
C238   H239    0.929   .     S
C238   C254    1.385   1_655 S
C241   H242    0.930   .     S
C241   C250    1.375   1_545 S
C243   C244    1.484   .     S
C244   C246    1.374   .     S
C245   O224    1.250   1_545 S
C245   C246    1.484   .     S
C247   H248    0.929   .     S
C247   C249    1.378   .     S
C249   C250    1.361   .     S
C250   C241    1.375   1_565 S
C250   H251    0.930   .     S
C252   H253    0.929   .     S
C252   C258    1.405   .     S
C252   C256    1.386   .     S
C254   C238    1.385   1_455 S
C254   H255    0.929   .     S
C254   C258    1.381   .     S
C256   C235    1.382   1_455 S
C256   H257    0.930   .     S
C258   C259    1.484   .     S
Co260  O264    2.117   .     S
Co260  N269    2.153   .     S
Co260  N271    2.130   .     S
Co260  O152    2.093   1_565 S
O261   C282    1.250   .     S
O262   Co303   1.983   .     S
O262   C282    1.270   .     S
O263   C280    1.258   .     S
O264   C280    1.254   .     S
O265   C296    1.226   1_545 S
O266   H267    0.819   .     S
O266   C296    1.316   .     S
H268   O304    0.842   .     S
N269   C277    1.326   .     S
N269   C281    1.377   .     S
N270   Co303   2.108   .     S
N270   C283    1.375   .     S
N270   C277    1.353   .     S
N271   C273    1.345   .     S
N271   C278    1.331   .     S
C272   C275    1.399   .     S
C272   C293    1.382   .     S
C272   C277    1.483   .     S
C273   H274    0.930   .     S
C273   C284    1.355   .     S
C275   H276    0.929   .     S
C275   C291    1.385   .     S
C278   H279    0.930   .     S
C278   C287    1.375   .     S
C280   C281    1.484   .     S
C281   C283    1.374   .     S
C282   C283    1.484   .     S
C284   H285    0.929   .     S
C284   C286    1.378   .     S
C286   C287    1.361   .     S
C287   H288    0.930   .     S
C289   H290    0.929   .     S
C289   C295    1.405   .     S
C289   C293    1.386   .     S
C291   H292    0.929   .     S
C291   C295    1.381   .     S
C293   H294    0.930   .     S
C295   C296    1.484   .     S
C296   O265    1.226   1_565 S
Co297  O3      1.983   1_455 S
Co297  O298    2.021   .     S
Co297  N11     2.108   1_455 S
O298   H9      0.842   1_455 S
Co299  O300    2.021   .     S
Co301  O225    1.983   1_455 S
Co301  O302    2.021   .     S
Co301  N233    2.108   1_455 S
O302   H231    0.842   1_455 S
Co303  O304    2.021   .     S
