data_OMIBAQ_FSR
_audit_creation_date              2024-06-11
_audit_creation_method            'Materials Studio'
_symmetry_space_group_name_H-M    'P1'
_symmetry_Int_Tables_number       1
_symmetry_cell_setting            triclinic
loop_
_symmetry_equiv_pos_as_xyz
  x,y,z
_cell_length_a                    27.6934
_cell_length_b                    11.4193
_cell_length_c                    18.3753
_cell_angle_alpha                 90.0000
_cell_angle_beta                  115.3680
_cell_angle_gamma                 90.0000
loop_
_atom_site_label
_atom_site_type_symbol
_atom_site_fract_x
_atom_site_fract_y
_atom_site_fract_z
_atom_site_U_iso_or_equiv
_atom_site_adp_type
_atom_site_occupancy
Zn1    Zn    0.13324   0.54479   0.46644   0.02031  Uani   1.00
O2     O     0.17731   0.67360   0.53465   0.02975  Uani   1.00
O3     O     0.24243   0.55830   0.53890   0.03832  Uani   1.00
O4     O     0.34891   0.89190   0.98079   0.02690  Uani   1.00
O5     O     0.33041   0.78890   0.06920   0.04982  Uani   1.00
N6     N     0.93904   0.59410   0.04100   0.02162  Uani   1.00
N7     N     0.95077   0.70030   0.01950   0.03100  Uani   1.00
H8     H     0.92599   0.74501   0.98675   0.03700  Uiso   1.00
N9     N     0.12660   0.55020   0.35330   0.02187  Uani   1.00
N10    N     0.14714   0.46390   0.32550   0.02608  Uani   1.00
H11    H     0.16572   0.40692   0.35465   0.03100  Uiso   1.00
C12    C     0.98775   0.55350   0.08810   0.02088  Uani   1.00
C13    C     0.02645   0.63770   0.09490   0.02183  Uani   1.00
C14    C     0.99842   0.73100   0.04860   0.02711  Uani   1.00
C15    C     0.10225   0.62390   0.29120   0.02239  Uani   1.00
C16    C     0.10679   0.57980   0.22300   0.02242  Uani   1.00
C17    C     0.13517   0.47780   0.24700   0.02504  Uani   1.00
C18    C     0.08622   0.63400   0.14030   0.02901  Uani   1.00
H19    H     0.09983   0.71331   0.14576   0.03500  Uiso   1.00
H20    H     0.10054   0.59030   0.10872   0.03500  Uiso   1.00
C21    C     0.99410   0.43620   0.12390   0.03430  Uani   1.00
H22    H     0.03139   0.42069   0.15584   0.05200  Uiso   1.00
H23    H     0.97545   0.43243   0.15743   0.05200  Uiso   1.00
H24    H     0.97972   0.37882   0.08185   0.05200  Uiso   1.00
C25    C     0.01750   0.84580   0.02980   0.04953  Uani   1.00
H26    H     0.05563   0.85077   0.05893   0.07400  Uiso   1.00
H27    H     0.00770   0.85035   0.97304   0.07400  Uiso   1.00
H28    H     0.00122   0.90932   0.04539   0.07400  Uiso   1.00
C29    C     0.07770   0.73580   0.30070   0.03406  Uani   1.00
H30    H     0.06238   0.77634   0.25010   0.05100  Uiso   1.00
H31    H     0.05036   0.71915   0.31815   0.05100  Uiso   1.00
H32    H     0.10472   0.78402   0.34014   0.05100  Uiso   1.00
C33    C     0.15310   0.39280   0.20190   0.03845  Uani   1.00
H34    H     0.14060   0.41794   0.14696   0.05800  Uiso   1.00
H35    H     0.19141   0.38898   0.22632   0.05800  Uiso   1.00
H36    H     0.13877   0.31670   0.20335   0.05800  Uiso   1.00
C37    C     0.22725   0.65150   0.55660   0.02988  Uani   1.00
C38    C     0.26632   0.74450   0.60540   0.03084  Uani   1.00
H39    H     0.25237   0.82101   0.58348   0.03700  Uiso   1.00
H40    H     0.29985   0.73360   0.60139   0.03700  Uiso   1.00
C41    C     0.27634   0.73980   0.69330   0.02663  Uani   1.00
C42    C     0.25975   0.83000   0.72870   0.02858  Uani   1.00
H43    H     0.24268   0.89549   0.69854   0.03400  Uiso   1.00
C44    C     0.26882   0.82190   0.80940   0.02817  Uani   1.00
H45    H     0.25788   0.88227   0.83287   0.03300  Uiso   1.00
C46    C     0.29365   0.72580   0.85420   0.02793  Uani   1.00
C47    C     0.31020   0.63730   0.81870   0.03240  Uani   1.00
H48    H     0.32700   0.57144   0.84862   0.03900  Uiso   1.00
C49    C     0.30226   0.64530   0.74060   0.03092  Uani   1.00
H50    H     0.31458   0.58562   0.71848   0.03700  Uiso   1.00
C51    C     0.30070   0.71030   0.94000   0.03549  Uani   1.00
H52    H     0.26549   0.70039   0.93841   0.04300  Uiso   1.00
H53    H     0.31996   0.63760   0.96015   0.04300  Uiso   1.00
C54    C     0.32870   0.80340   0.00030   0.02799  Uani   1.00
Zn55   Zn    0.63324   0.04479   0.46644   0.02031  Uani   1.00
O56    O     0.67731   0.17360   0.53465   0.02975  Uani   1.00
O57    O     0.74243   0.05830   0.53890   0.03832  Uani   1.00
O58    O     0.84891   0.39190   0.98079   0.02690  Uani   1.00
O59    O     0.83041   0.28890   0.06920   0.04982  Uani   1.00
N60    N     0.43904   0.09410   0.04100   0.02162  Uani   1.00
N61    N     0.45077   0.20030   0.01950   0.03100  Uani   1.00
H62    H     0.42599   0.24501   0.98675   0.03700  Uiso   1.00
N63    N     0.62660   0.05020   0.35330   0.02187  Uani   1.00
N64    N     0.64714   0.96390   0.32550   0.02608  Uani   1.00
H65    H     0.66572   0.90692   0.35465   0.03100  Uiso   1.00
C66    C     0.48775   0.05350   0.08810   0.02088  Uani   1.00
C67    C     0.52645   0.13770   0.09490   0.02183  Uani   1.00
C68    C     0.49842   0.23100   0.04860   0.02711  Uani   1.00
C69    C     0.60225   0.12390   0.29120   0.02239  Uani   1.00
C70    C     0.60679   0.07980   0.22300   0.02242  Uani   1.00
C71    C     0.63517   0.97780   0.24700   0.02504  Uani   1.00
C72    C     0.58622   0.13400   0.14030   0.02901  Uani   1.00
H73    H     0.59983   0.21331   0.14576   0.03500  Uiso   1.00
H74    H     0.60054   0.09030   0.10872   0.03500  Uiso   1.00
C75    C     0.49410   0.93620   0.12390   0.03430  Uani   1.00
H76    H     0.53139   0.92069   0.15583   0.05200  Uiso   1.00
H77    H     0.47545   0.93243   0.15743   0.05200  Uiso   1.00
H78    H     0.47972   0.87882   0.08185   0.05200  Uiso   1.00
C79    C     0.51750   0.34580   0.02980   0.04953  Uani   1.00
H80    H     0.55563   0.35077   0.05893   0.07400  Uiso   1.00
H81    H     0.50770   0.35035   0.97303   0.07400  Uiso   1.00
H82    H     0.50122   0.40932   0.04539   0.07400  Uiso   1.00
C83    C     0.57770   0.23580   0.30070   0.03406  Uani   1.00
H84    H     0.56238   0.27634   0.25010   0.05100  Uiso   1.00
H85    H     0.55036   0.21915   0.31815   0.05100  Uiso   1.00
H86    H     0.60472   0.28402   0.34014   0.05100  Uiso   1.00
C87    C     0.65310   0.89280   0.20190   0.03845  Uani   1.00
H88    H     0.64060   0.91794   0.14696   0.05800  Uiso   1.00
H89    H     0.69141   0.88898   0.22631   0.05800  Uiso   1.00
H90    H     0.63877   0.81670   0.20335   0.05800  Uiso   1.00
C91    C     0.72725   0.15150   0.55660   0.02988  Uani   1.00
C92    C     0.76632   0.24450   0.60540   0.03084  Uani   1.00
H93    H     0.75237   0.32101   0.58348   0.03700  Uiso   1.00
H94    H     0.79985   0.23360   0.60139   0.03700  Uiso   1.00
C95    C     0.77634   0.23980   0.69330   0.02663  Uani   1.00
C96    C     0.75975   0.33000   0.72870   0.02858  Uani   1.00
H97    H     0.74268   0.39549   0.69854   0.03400  Uiso   1.00
C98    C     0.76882   0.32190   0.80940   0.02817  Uani   1.00
H99    H     0.75788   0.38227   0.83287   0.03300  Uiso   1.00
C100   C     0.79365   0.22580   0.85420   0.02793  Uani   1.00
C101   C     0.81020   0.13730   0.81870   0.03240  Uani   1.00
H102   H     0.82700   0.07144   0.84862   0.03900  Uiso   1.00
C103   C     0.80226   0.14530   0.74060   0.03092  Uani   1.00
H104   H     0.81458   0.08562   0.71848   0.03700  Uiso   1.00
C105   C     0.80070   0.21030   0.94000   0.03549  Uani   1.00
H106   H     0.76549   0.20039   0.93841   0.04300  Uiso   1.00
H107   H     0.81996   0.13760   0.96015   0.04300  Uiso   1.00
C108   C     0.82870   0.30340   0.00030   0.02799  Uani   1.00
Zn109  Zn    0.86676   0.54479   0.03356   0.02031  Uani   1.00
O110   O     0.82269   0.67360   0.96535   0.02975  Uani   1.00
O111   O     0.75757   0.55830   0.96110   0.03832  Uani   1.00
O112   O     0.65109   0.89190   0.51921   0.02690  Uani   1.00
O113   O     0.66959   0.78890   0.43080   0.04982  Uani   1.00
N114   N     0.06096   0.59410   0.45900   0.02162  Uani   1.00
N115   N     0.04923   0.70030   0.48050   0.03100  Uani   1.00
H116   H     0.07401   0.74501   0.51325   0.03700  Uiso   1.00
N117   N     0.87340   0.55020   0.14670   0.02187  Uani   1.00
N118   N     0.85286   0.46390   0.17450   0.02608  Uani   1.00
H119   H     0.83428   0.40692   0.14535   0.03100  Uiso   1.00
C120   C     0.01225   0.55350   0.41190   0.02088  Uani   1.00
C121   C     0.97355   0.63770   0.40510   0.02183  Uani   1.00
C122   C     0.00158   0.73100   0.45140   0.02711  Uani   1.00
C123   C     0.89775   0.62390   0.20880   0.02239  Uani   1.00
C124   C     0.89321   0.57980   0.27700   0.02242  Uani   1.00
C125   C     0.86483   0.47780   0.25300   0.02504  Uani   1.00
C126   C     0.91378   0.63400   0.35970   0.02901  Uani   1.00
H127   H     0.90017   0.71331   0.35424   0.03500  Uiso   1.00
H128   H     0.89946   0.59030   0.39127   0.03500  Uiso   1.00
C129   C     0.00590   0.43620   0.37610   0.03430  Uani   1.00
H130   H     0.96861   0.42069   0.34416   0.05200  Uiso   1.00
H131   H     0.02455   0.43243   0.34257   0.05200  Uiso   1.00
H132   H     0.02028   0.37882   0.41815   0.05200  Uiso   1.00
C133   C     0.98250   0.84580   0.47020   0.04953  Uani   1.00
H134   H     0.94437   0.85077   0.44107   0.07400  Uiso   1.00
H135   H     0.99230   0.85035   0.52697   0.07400  Uiso   1.00
H136   H     0.99878   0.90932   0.45461   0.07400  Uiso   1.00
C137   C     0.92230   0.73580   0.19930   0.03406  Uani   1.00
H138   H     0.93762   0.77634   0.24990   0.05100  Uiso   1.00
H139   H     0.94964   0.71915   0.18185   0.05100  Uiso   1.00
H140   H     0.89527   0.78402   0.15986   0.05100  Uiso   1.00
C141   C     0.84690   0.39280   0.29810   0.03845  Uani   1.00
H142   H     0.85940   0.41794   0.35304   0.05800  Uiso   1.00
H143   H     0.80859   0.38898   0.27368   0.05800  Uiso   1.00
H144   H     0.86123   0.31670   0.29665   0.05800  Uiso   1.00
C145   C     0.77275   0.65150   0.94340   0.02988  Uani   1.00
C146   C     0.73368   0.74450   0.89460   0.03084  Uani   1.00
H147   H     0.74763   0.82101   0.91652   0.03700  Uiso   1.00
H148   H     0.70015   0.73360   0.89861   0.03700  Uiso   1.00
C149   C     0.72366   0.73980   0.80670   0.02663  Uani   1.00
C150   C     0.74025   0.83000   0.77130   0.02858  Uani   1.00
H151   H     0.75732   0.89549   0.80146   0.03400  Uiso   1.00
C152   C     0.73118   0.82190   0.69060   0.02817  Uani   1.00
H153   H     0.74212   0.88227   0.66713   0.03300  Uiso   1.00
C154   C     0.70635   0.72580   0.64580   0.02793  Uani   1.00
C155   C     0.68980   0.63730   0.68130   0.03240  Uani   1.00
H156   H     0.67300   0.57144   0.65138   0.03900  Uiso   1.00
C157   C     0.69774   0.64530   0.75940   0.03092  Uani   1.00
H158   H     0.68542   0.58562   0.78152   0.03700  Uiso   1.00
C159   C     0.69930   0.71030   0.56000   0.03549  Uani   1.00
H160   H     0.73451   0.70039   0.56159   0.04300  Uiso   1.00
H161   H     0.68004   0.63760   0.53985   0.04300  Uiso   1.00
C162   C     0.67130   0.80340   0.49970   0.02799  Uani   1.00
Zn163  Zn    0.36676   0.04479   0.03356   0.02031  Uani   1.00
O164   O     0.32269   0.17360   0.96535   0.02975  Uani   1.00
O165   O     0.25757   0.05830   0.96110   0.03832  Uani   1.00
O166   O     0.15109   0.39190   0.51921   0.02690  Uani   1.00
O167   O     0.16959   0.28890   0.43080   0.04982  Uani   1.00
N168   N     0.56096   0.09410   0.45900   0.02162  Uani   1.00
N169   N     0.54923   0.20030   0.48050   0.03100  Uani   1.00
H170   H     0.57401   0.24501   0.51325   0.03700  Uiso   1.00
N171   N     0.37340   0.05020   0.14670   0.02187  Uani   1.00
N172   N     0.35286   0.96390   0.17450   0.02608  Uani   1.00
H173   H     0.33428   0.90692   0.14535   0.03100  Uiso   1.00
C174   C     0.51225   0.05350   0.41190   0.02088  Uani   1.00
C175   C     0.47355   0.13770   0.40510   0.02183  Uani   1.00
C176   C     0.50158   0.23100   0.45140   0.02711  Uani   1.00
C177   C     0.39775   0.12390   0.20880   0.02239  Uani   1.00
C178   C     0.39321   0.07980   0.27700   0.02242  Uani   1.00
C179   C     0.36483   0.97780   0.25300   0.02504  Uani   1.00
C180   C     0.41378   0.13400   0.35970   0.02901  Uani   1.00
H181   H     0.40017   0.21331   0.35424   0.03500  Uiso   1.00
H182   H     0.39946   0.09030   0.39127   0.03500  Uiso   1.00
C183   C     0.50590   0.93620   0.37610   0.03430  Uani   1.00
H184   H     0.46861   0.92069   0.34416   0.05200  Uiso   1.00
H185   H     0.52455   0.93243   0.34257   0.05200  Uiso   1.00
H186   H     0.52028   0.87882   0.41815   0.05200  Uiso   1.00
C187   C     0.48250   0.34580   0.47020   0.04953  Uani   1.00
H188   H     0.44437   0.35077   0.44107   0.07400  Uiso   1.00
H189   H     0.49230   0.35035   0.52697   0.07400  Uiso   1.00
H190   H     0.49878   0.40932   0.45461   0.07400  Uiso   1.00
C191   C     0.42230   0.23580   0.19930   0.03406  Uani   1.00
H192   H     0.43762   0.27634   0.24990   0.05100  Uiso   1.00
H193   H     0.44964   0.21915   0.18185   0.05100  Uiso   1.00
H194   H     0.39527   0.28402   0.15986   0.05100  Uiso   1.00
C195   C     0.34690   0.89280   0.29810   0.03845  Uani   1.00
H196   H     0.35940   0.91794   0.35304   0.05800  Uiso   1.00
H197   H     0.30859   0.88898   0.27368   0.05800  Uiso   1.00
H198   H     0.36123   0.81670   0.29665   0.05800  Uiso   1.00
C199   C     0.27275   0.15150   0.94340   0.02988  Uani   1.00
C200   C     0.23368   0.24450   0.89460   0.03084  Uani   1.00
H201   H     0.24763   0.32101   0.91652   0.03700  Uiso   1.00
H202   H     0.20015   0.23360   0.89861   0.03700  Uiso   1.00
C203   C     0.22366   0.23980   0.80670   0.02663  Uani   1.00
C204   C     0.24025   0.33000   0.77130   0.02858  Uani   1.00
H205   H     0.25732   0.39549   0.80146   0.03400  Uiso   1.00
C206   C     0.23118   0.32190   0.69060   0.02817  Uani   1.00
H207   H     0.24212   0.38227   0.66713   0.03300  Uiso   1.00
C208   C     0.20635   0.22580   0.64580   0.02793  Uani   1.00
C209   C     0.18980   0.13730   0.68130   0.03240  Uani   1.00
H210   H     0.17300   0.07144   0.65138   0.03900  Uiso   1.00
C211   C     0.19774   0.14530   0.75940   0.03092  Uani   1.00
H212   H     0.18542   0.08562   0.78152   0.03700  Uiso   1.00
C213   C     0.19930   0.21030   0.56000   0.03549  Uani   1.00
H214   H     0.23451   0.20039   0.56159   0.04300  Uiso   1.00
H215   H     0.18004   0.13760   0.53985   0.04300  Uiso   1.00
C216   C     0.17130   0.30340   0.49970   0.02799  Uani   1.00
Zn217  Zn    0.86676   0.45521   0.53356   0.02031  Uani   1.00
O218   O     0.82269   0.32640   0.46535   0.02975  Uani   1.00
O219   O     0.75757   0.44170   0.46110   0.03832  Uani   1.00
O220   O     0.65109   0.10810   0.01921   0.02690  Uani   1.00
O221   O     0.66959   0.21110   0.93080   0.04982  Uani   1.00
N222   N     0.06096   0.40590   0.95900   0.02162  Uani   1.00
N223   N     0.04923   0.29970   0.98050   0.03100  Uani   1.00
H224   H     0.07401   0.25499   0.01325   0.03700  Uiso   1.00
N225   N     0.87340   0.44980   0.64670   0.02187  Uani   1.00
N226   N     0.85286   0.53610   0.67450   0.02608  Uani   1.00
H227   H     0.83428   0.59308   0.64535   0.03100  Uiso   1.00
C228   C     0.01225   0.44650   0.91190   0.02088  Uani   1.00
C229   C     0.97355   0.36230   0.90510   0.02183  Uani   1.00
C230   C     0.00158   0.26900   0.95140   0.02711  Uani   1.00
C231   C     0.89775   0.37610   0.70880   0.02239  Uani   1.00
C232   C     0.89321   0.42020   0.77700   0.02242  Uani   1.00
C233   C     0.86483   0.52220   0.75300   0.02504  Uani   1.00
C234   C     0.91378   0.36600   0.85970   0.02901  Uani   1.00
H235   H     0.90017   0.28669   0.85424   0.03500  Uiso   1.00
H236   H     0.89946   0.40970   0.89127   0.03500  Uiso   1.00
C237   C     0.00590   0.56380   0.87610   0.03430  Uani   1.00
H238   H     0.96861   0.57931   0.84416   0.05200  Uiso   1.00
H239   H     0.02455   0.56757   0.84257   0.05200  Uiso   1.00
H240   H     0.02028   0.62118   0.91815   0.05200  Uiso   1.00
C241   C     0.98250   0.15420   0.97020   0.04953  Uani   1.00
H242   H     0.94437   0.14923   0.94107   0.07400  Uiso   1.00
H243   H     0.99230   0.14965   0.02696   0.07400  Uiso   1.00
H244   H     0.99878   0.09068   0.95461   0.07400  Uiso   1.00
C245   C     0.92230   0.26420   0.69930   0.03406  Uani   1.00
H246   H     0.93762   0.22366   0.74990   0.05100  Uiso   1.00
H247   H     0.94964   0.28085   0.68185   0.05100  Uiso   1.00
H248   H     0.89527   0.21598   0.65986   0.05100  Uiso   1.00
C249   C     0.84690   0.60720   0.79810   0.03845  Uani   1.00
H250   H     0.85940   0.58206   0.85304   0.05800  Uiso   1.00
H251   H     0.80859   0.61102   0.77368   0.05800  Uiso   1.00
H252   H     0.86123   0.68330   0.79665   0.05800  Uiso   1.00
C253   C     0.77275   0.34850   0.44340   0.02988  Uani   1.00
C254   C     0.73368   0.25550   0.39460   0.03084  Uani   1.00
H255   H     0.74763   0.17899   0.41652   0.03700  Uiso   1.00
H256   H     0.70015   0.26640   0.39861   0.03700  Uiso   1.00
C257   C     0.72366   0.26020   0.30670   0.02663  Uani   1.00
C258   C     0.74025   0.17000   0.27130   0.02858  Uani   1.00
H259   H     0.75732   0.10451   0.30146   0.03400  Uiso   1.00
C260   C     0.73118   0.17810   0.19060   0.02817  Uani   1.00
H261   H     0.74212   0.11773   0.16713   0.03300  Uiso   1.00
C262   C     0.70635   0.27420   0.14580   0.02793  Uani   1.00
C263   C     0.68980   0.36270   0.18130   0.03240  Uani   1.00
H264   H     0.67300   0.42856   0.15138   0.03900  Uiso   1.00
C265   C     0.69774   0.35470   0.25940   0.03092  Uani   1.00
H266   H     0.68542   0.41438   0.28152   0.03700  Uiso   1.00
C267   C     0.69930   0.28970   0.06000   0.03549  Uani   1.00
H268   H     0.73451   0.29961   0.06159   0.04300  Uiso   1.00
H269   H     0.68004   0.36240   0.03985   0.04300  Uiso   1.00
C270   C     0.67130   0.19660   0.99970   0.02799  Uani   1.00
Zn271  Zn    0.36676   0.95521   0.53356   0.02031  Uani   1.00
O272   O     0.32269   0.82640   0.46535   0.02975  Uani   1.00
O273   O     0.25757   0.94170   0.46110   0.03832  Uani   1.00
O274   O     0.15109   0.60810   0.01921   0.02690  Uani   1.00
O275   O     0.16959   0.71110   0.93080   0.04982  Uani   1.00
N276   N     0.56096   0.90590   0.95900   0.02162  Uani   1.00
N277   N     0.54923   0.79970   0.98050   0.03100  Uani   1.00
H278   H     0.57401   0.75499   0.01325   0.03700  Uiso   1.00
N279   N     0.37340   0.94980   0.64670   0.02187  Uani   1.00
N280   N     0.35286   0.03610   0.67450   0.02608  Uani   1.00
H281   H     0.33428   0.09308   0.64535   0.03100  Uiso   1.00
C282   C     0.51225   0.94650   0.91190   0.02088  Uani   1.00
C283   C     0.47355   0.86230   0.90510   0.02183  Uani   1.00
C284   C     0.50158   0.76900   0.95140   0.02711  Uani   1.00
C285   C     0.39775   0.87610   0.70880   0.02239  Uani   1.00
C286   C     0.39321   0.92020   0.77700   0.02242  Uani   1.00
C287   C     0.36483   0.02220   0.75300   0.02504  Uani   1.00
C288   C     0.41378   0.86600   0.85970   0.02901  Uani   1.00
H289   H     0.40017   0.78669   0.85424   0.03500  Uiso   1.00
H290   H     0.39946   0.90970   0.89128   0.03500  Uiso   1.00
C291   C     0.50590   0.06380   0.87610   0.03430  Uani   1.00
H292   H     0.46861   0.07931   0.84416   0.05200  Uiso   1.00
H293   H     0.52455   0.06757   0.84257   0.05200  Uiso   1.00
H294   H     0.52028   0.12118   0.91815   0.05200  Uiso   1.00
C295   C     0.48250   0.65420   0.97020   0.04953  Uani   1.00
H296   H     0.44437   0.64923   0.94107   0.07400  Uiso   1.00
H297   H     0.49230   0.64965   0.02697   0.07400  Uiso   1.00
H298   H     0.49878   0.59068   0.95461   0.07400  Uiso   1.00
C299   C     0.42230   0.76420   0.69930   0.03406  Uani   1.00
H300   H     0.43762   0.72366   0.74990   0.05100  Uiso   1.00
H301   H     0.44964   0.78085   0.68185   0.05100  Uiso   1.00
H302   H     0.39527   0.71598   0.65986   0.05100  Uiso   1.00
C303   C     0.34690   0.10720   0.79810   0.03845  Uani   1.00
H304   H     0.35940   0.08206   0.85304   0.05800  Uiso   1.00
H305   H     0.30859   0.11102   0.77369   0.05800  Uiso   1.00
H306   H     0.36123   0.18330   0.79665   0.05800  Uiso   1.00
C307   C     0.27275   0.84850   0.44340   0.02988  Uani   1.00
C308   C     0.23368   0.75550   0.39460   0.03084  Uani   1.00
H309   H     0.24763   0.67899   0.41652   0.03700  Uiso   1.00
H310   H     0.20015   0.76640   0.39861   0.03700  Uiso   1.00
C311   C     0.22366   0.76020   0.30670   0.02663  Uani   1.00
C312   C     0.24025   0.67000   0.27130   0.02858  Uani   1.00
H313   H     0.25732   0.60451   0.30146   0.03400  Uiso   1.00
C314   C     0.23118   0.67810   0.19060   0.02817  Uani   1.00
H315   H     0.24212   0.61773   0.16713   0.03300  Uiso   1.00
C316   C     0.20635   0.77420   0.14580   0.02793  Uani   1.00
C317   C     0.18980   0.86270   0.18130   0.03240  Uani   1.00
H318   H     0.17300   0.92856   0.15138   0.03900  Uiso   1.00
C319   C     0.19774   0.85470   0.25940   0.03092  Uani   1.00
H320   H     0.18542   0.91438   0.28152   0.03700  Uiso   1.00
C321   C     0.19930   0.78970   0.06000   0.03549  Uani   1.00
H322   H     0.23451   0.79961   0.06159   0.04300  Uiso   1.00
H323   H     0.18004   0.86240   0.03985   0.04300  Uiso   1.00
C324   C     0.17130   0.69660   0.99970   0.02799  Uani   1.00
Zn325  Zn    0.13324   0.45521   0.96644   0.02031  Uani   1.00
O326   O     0.17731   0.32640   0.03465   0.02975  Uani   1.00
O327   O     0.24243   0.44170   0.03890   0.03832  Uani   1.00
O328   O     0.34891   0.10810   0.48079   0.02690  Uani   1.00
O329   O     0.33041   0.21110   0.56920   0.04982  Uani   1.00
N330   N     0.93904   0.40590   0.54100   0.02162  Uani   1.00
N331   N     0.95077   0.29970   0.51950   0.03100  Uani   1.00
H332   H     0.92599   0.25499   0.48675   0.03700  Uiso   1.00
N333   N     0.12660   0.44980   0.85330   0.02187  Uani   1.00
N334   N     0.14714   0.53610   0.82550   0.02608  Uani   1.00
H335   H     0.16572   0.59308   0.85465   0.03100  Uiso   1.00
C336   C     0.98775   0.44650   0.58810   0.02088  Uani   1.00
C337   C     0.02645   0.36230   0.59490   0.02183  Uani   1.00
C338   C     0.99842   0.26900   0.54860   0.02711  Uani   1.00
C339   C     0.10225   0.37610   0.79120   0.02239  Uani   1.00
C340   C     0.10679   0.42020   0.72300   0.02242  Uani   1.00
C341   C     0.13517   0.52220   0.74700   0.02504  Uani   1.00
C342   C     0.08622   0.36600   0.64030   0.02901  Uani   1.00
H343   H     0.09983   0.28669   0.64576   0.03500  Uiso   1.00
H344   H     0.10054   0.40970   0.60872   0.03500  Uiso   1.00
C345   C     0.99410   0.56380   0.62390   0.03430  Uani   1.00
H346   H     0.03139   0.57931   0.65584   0.05200  Uiso   1.00
H347   H     0.97545   0.56757   0.65743   0.05200  Uiso   1.00
H348   H     0.97972   0.62118   0.58185   0.05200  Uiso   1.00
C349   C     0.01750   0.15420   0.52980   0.04953  Uani   1.00
H350   H     0.05563   0.14923   0.55893   0.07400  Uiso   1.00
H351   H     0.00770   0.14965   0.47304   0.07400  Uiso   1.00
H352   H     0.00122   0.09068   0.54539   0.07400  Uiso   1.00
C353   C     0.07770   0.26420   0.80070   0.03406  Uani   1.00
H354   H     0.06238   0.22366   0.75010   0.05100  Uiso   1.00
H355   H     0.05036   0.28085   0.81815   0.05100  Uiso   1.00
H356   H     0.10472   0.21598   0.84014   0.05100  Uiso   1.00
C357   C     0.15310   0.60720   0.70190   0.03845  Uani   1.00
H358   H     0.14060   0.58206   0.64696   0.05800  Uiso   1.00
H359   H     0.19141   0.61102   0.72632   0.05800  Uiso   1.00
H360   H     0.13877   0.68330   0.70335   0.05800  Uiso   1.00
C361   C     0.22725   0.34850   0.05660   0.02988  Uani   1.00
C362   C     0.26632   0.25550   0.10540   0.03084  Uani   1.00
H363   H     0.25237   0.17899   0.08348   0.03700  Uiso   1.00
H364   H     0.29985   0.26640   0.10139   0.03700  Uiso   1.00
C365   C     0.27634   0.26020   0.19330   0.02663  Uani   1.00
C366   C     0.25975   0.17000   0.22870   0.02858  Uani   1.00
H367   H     0.24268   0.10451   0.19854   0.03400  Uiso   1.00
C368   C     0.26882   0.17810   0.30940   0.02817  Uani   1.00
H369   H     0.25788   0.11773   0.33287   0.03300  Uiso   1.00
C370   C     0.29365   0.27420   0.35420   0.02793  Uani   1.00
C371   C     0.31020   0.36270   0.31870   0.03240  Uani   1.00
H372   H     0.32700   0.42856   0.34862   0.03900  Uiso   1.00
C373   C     0.30226   0.35470   0.24060   0.03092  Uani   1.00
H374   H     0.31458   0.41438   0.21848   0.03700  Uiso   1.00
C375   C     0.30070   0.28970   0.44000   0.03549  Uani   1.00
H376   H     0.26549   0.29961   0.43841   0.04300  Uiso   1.00
H377   H     0.31996   0.36240   0.46015   0.04300  Uiso   1.00
C378   C     0.32870   0.19660   0.50030   0.02799  Uani   1.00
Zn379  Zn    0.63324   0.95521   0.96644   0.02031  Uani   1.00
O380   O     0.67731   0.82640   0.03465   0.02975  Uani   1.00
O381   O     0.74243   0.94170   0.03890   0.03832  Uani   1.00
O382   O     0.84891   0.60810   0.48079   0.02690  Uani   1.00
O383   O     0.83041   0.71110   0.56920   0.04982  Uani   1.00
N384   N     0.43904   0.90590   0.54100   0.02162  Uani   1.00
N385   N     0.45077   0.79970   0.51950   0.03100  Uani   1.00
H386   H     0.42599   0.75499   0.48675   0.03700  Uiso   1.00
N387   N     0.62660   0.94980   0.85330   0.02187  Uani   1.00
N388   N     0.64714   0.03610   0.82550   0.02608  Uani   1.00
H389   H     0.66572   0.09308   0.85465   0.03100  Uiso   1.00
C390   C     0.48775   0.94650   0.58810   0.02088  Uani   1.00
C391   C     0.52645   0.86230   0.59490   0.02183  Uani   1.00
C392   C     0.49842   0.76900   0.54860   0.02711  Uani   1.00
C393   C     0.60225   0.87610   0.79120   0.02239  Uani   1.00
C394   C     0.60679   0.92020   0.72300   0.02242  Uani   1.00
C395   C     0.63517   0.02220   0.74700   0.02504  Uani   1.00
C396   C     0.58622   0.86600   0.64030   0.02901  Uani   1.00
H397   H     0.59983   0.78669   0.64576   0.03500  Uiso   1.00
H398   H     0.60054   0.90970   0.60872   0.03500  Uiso   1.00
C399   C     0.49410   0.06380   0.62390   0.03430  Uani   1.00
H400   H     0.53139   0.07931   0.65583   0.05200  Uiso   1.00
H401   H     0.47545   0.06757   0.65743   0.05200  Uiso   1.00
H402   H     0.47972   0.12118   0.58185   0.05200  Uiso   1.00
C403   C     0.51750   0.65420   0.52980   0.04953  Uani   1.00
H404   H     0.55563   0.64923   0.55893   0.07400  Uiso   1.00
H405   H     0.50770   0.64965   0.47303   0.07400  Uiso   1.00
H406   H     0.50122   0.59068   0.54539   0.07400  Uiso   1.00
C407   C     0.57770   0.76420   0.80070   0.03406  Uani   1.00
H408   H     0.56238   0.72366   0.75010   0.05100  Uiso   1.00
H409   H     0.55036   0.78085   0.81815   0.05100  Uiso   1.00
H410   H     0.60472   0.71598   0.84014   0.05100  Uiso   1.00
C411   C     0.65310   0.10720   0.70190   0.03845  Uani   1.00
H412   H     0.64060   0.08206   0.64696   0.05800  Uiso   1.00
H413   H     0.69141   0.11102   0.72631   0.05800  Uiso   1.00
H414   H     0.63877   0.18330   0.70335   0.05800  Uiso   1.00
C415   C     0.72725   0.84850   0.05660   0.02988  Uani   1.00
C416   C     0.76632   0.75550   0.10540   0.03084  Uani   1.00
H417   H     0.75237   0.67899   0.08348   0.03700  Uiso   1.00
H418   H     0.79985   0.76640   0.10139   0.03700  Uiso   1.00
C419   C     0.77634   0.76020   0.19330   0.02663  Uani   1.00
C420   C     0.75975   0.67000   0.22870   0.02858  Uani   1.00
H421   H     0.74268   0.60451   0.19854   0.03400  Uiso   1.00
C422   C     0.76882   0.67810   0.30940   0.02817  Uani   1.00
H423   H     0.75788   0.61773   0.33287   0.03300  Uiso   1.00
C424   C     0.79365   0.77420   0.35420   0.02793  Uani   1.00
C425   C     0.81020   0.86270   0.31870   0.03240  Uani   1.00
H426   H     0.82700   0.92856   0.34862   0.03900  Uiso   1.00
C427   C     0.80226   0.85470   0.24060   0.03092  Uani   1.00
H428   H     0.81458   0.91438   0.21848   0.03700  Uiso   1.00
C429   C     0.80070   0.78970   0.44000   0.03549  Uani   1.00
H430   H     0.76549   0.79961   0.43841   0.04300  Uiso   1.00
H431   H     0.81996   0.86240   0.46015   0.04300  Uiso   1.00
C432   C     0.82870   0.69660   0.50030   0.02799  Uani   1.00
loop_
_atom_site_aniso_label
_atom_site_aniso_U_11
_atom_site_aniso_U_22
_atom_site_aniso_U_33
_atom_site_aniso_U_12
_atom_site_aniso_U_13
_atom_site_aniso_U_23
Zn1       0.01800   0.02690   0.01390   0.00153   0.00480  -0.00127
O2        0.02640   0.03840   0.02180  -0.00400   0.00780  -0.00670
O3        0.03400   0.04300   0.03700   0.00220   0.01430  -0.00390
O4        0.02860   0.03110   0.02380  -0.00590   0.01390  -0.00410
O5        0.08200   0.04400   0.02810  -0.02500   0.02800  -0.00650
N6        0.01720   0.02550   0.02050  -0.00160   0.00650   0.00520
N7        0.03800   0.02510   0.02900   0.00020   0.01350   0.01030
N9        0.02180   0.02810   0.01610   0.00260   0.00850  -0.00220
N10       0.02700   0.02950   0.01700   0.00870   0.00490   0.00140
C12       0.02000   0.02900   0.01380   0.00130   0.00740   0.00160
C13       0.02200   0.03200   0.01270  -0.00170   0.00860  -0.00030
C14       0.01900   0.03300   0.02500  -0.00560   0.00530   0.00620
C15       0.01600   0.03300   0.01490  -0.00380   0.00350   0.00140
C16       0.01200   0.03600   0.01900  -0.00380   0.00640   0.00160
C17       0.02300   0.03700   0.01600   0.00240   0.00920  -0.00150
C18       0.01900   0.05000   0.01800   0.00030   0.00790   0.00750
C21       0.02500   0.02800   0.04300   0.00450   0.00800   0.01100
C25       0.04000   0.03800   0.06400  -0.00700   0.01600   0.02200
C29       0.03200   0.03500   0.03400   0.00600   0.01300   0.00500
C33       0.04400   0.04500   0.02800   0.01700   0.01700   0.00200
C37       0.03100   0.04100   0.01900   0.00200   0.01200   0.00390
C38       0.03100   0.04300   0.01800  -0.01300   0.01000   0.00130
C41       0.02700   0.03500   0.01900  -0.01400   0.01090  -0.00330
C42       0.02200   0.02800   0.03200  -0.00380   0.00800   0.00160
C44       0.03000   0.03200   0.02400  -0.00560   0.01300  -0.00780
C46       0.02600   0.03300   0.02300  -0.01060   0.00880  -0.00750
C47       0.03200   0.03000   0.02800  -0.00210   0.00600  -0.00020
C49       0.03100   0.03100   0.02800  -0.00150   0.01000  -0.00450
C51       0.04600   0.03700   0.02100  -0.01400   0.01200  -0.00170
C54       0.03300   0.02800   0.02100  -0.00180   0.00970  -0.00260
Zn55      0.01800   0.02690   0.01390   0.00153   0.00480  -0.00127
O56       0.02640   0.03840   0.02180  -0.00400   0.00780  -0.00670
O57       0.03400   0.04300   0.03700   0.00220   0.01430  -0.00390
O58       0.02860   0.03110   0.02380  -0.00590   0.01390  -0.00410
O59       0.08200   0.04400   0.02810  -0.02500   0.02800  -0.00650
N60       0.01720   0.02550   0.02050  -0.00160   0.00650   0.00520
N61       0.03800   0.02510   0.02900   0.00020   0.01350   0.01030
N63       0.02180   0.02810   0.01610   0.00260   0.00850  -0.00220
N64       0.02700   0.02950   0.01700   0.00870   0.00490   0.00140
C66       0.02000   0.02900   0.01380   0.00130   0.00740   0.00160
C67       0.02200   0.03200   0.01270  -0.00170   0.00860  -0.00030
C68       0.01900   0.03300   0.02500  -0.00560   0.00530   0.00620
C69       0.01600   0.03300   0.01490  -0.00380   0.00350   0.00140
C70       0.01200   0.03600   0.01900  -0.00380   0.00640   0.00160
C71       0.02300   0.03700   0.01600   0.00240   0.00920  -0.00150
C72       0.01900   0.05000   0.01800   0.00030   0.00790   0.00750
C75       0.02500   0.02800   0.04300   0.00450   0.00800   0.01100
C79       0.04000   0.03800   0.06400  -0.00700   0.01600   0.02200
C83       0.03200   0.03500   0.03400   0.00600   0.01300   0.00500
C87       0.04400   0.04500   0.02800   0.01700   0.01700   0.00200
C91       0.03100   0.04100   0.01900   0.00200   0.01200   0.00390
C92       0.03100   0.04300   0.01800  -0.01300   0.01000   0.00130
C95       0.02700   0.03500   0.01900  -0.01400   0.01090  -0.00330
C96       0.02200   0.02800   0.03200  -0.00380   0.00800   0.00160
C98       0.03000   0.03200   0.02400  -0.00560   0.01300  -0.00780
C100      0.02600   0.03300   0.02300  -0.01060   0.00880  -0.00750
C101      0.03200   0.03000   0.02800  -0.00210   0.00600  -0.00020
C103      0.03100   0.03100   0.02800  -0.00150   0.01000  -0.00450
C105      0.04600   0.03700   0.02100  -0.01400   0.01200  -0.00170
C108      0.03300   0.02800   0.02100  -0.00180   0.00970  -0.00260
Zn109     0.01800   0.02690   0.01390  -0.00153   0.00480   0.00127
O110      0.02640   0.03840   0.02180   0.00400   0.00780   0.00670
O111      0.03400   0.04300   0.03700  -0.00220   0.01430   0.00390
O112      0.02860   0.03110   0.02380   0.00590   0.01390   0.00410
O113      0.08200   0.04400   0.02810   0.02500   0.02800   0.00650
N114      0.01720   0.02550   0.02050   0.00160   0.00650  -0.00520
N115      0.03800   0.02510   0.02900  -0.00020   0.01350  -0.01030
N117      0.02180   0.02810   0.01610  -0.00260   0.00850   0.00220
N118      0.02700   0.02950   0.01700  -0.00870   0.00490  -0.00140
C120      0.02000   0.02900   0.01380  -0.00130   0.00740  -0.00160
C121      0.02200   0.03200   0.01270   0.00170   0.00860   0.00030
C122      0.01900   0.03300   0.02500   0.00560   0.00530  -0.00620
C123      0.01600   0.03300   0.01490   0.00380   0.00350  -0.00140
C124      0.01200   0.03600   0.01900   0.00380   0.00640  -0.00160
C125      0.02300   0.03700   0.01600  -0.00240   0.00920   0.00150
C126      0.01900   0.05000   0.01800  -0.00030   0.00790  -0.00750
C129      0.02500   0.02800   0.04300  -0.00450   0.00800  -0.01100
C133      0.04000   0.03800   0.06400   0.00700   0.01600  -0.02200
C137      0.03200   0.03500   0.03400  -0.00600   0.01300  -0.00500
C141      0.04400   0.04500   0.02800  -0.01700   0.01700  -0.00200
C145      0.03100   0.04100   0.01900  -0.00200   0.01200  -0.00390
C146      0.03100   0.04300   0.01800   0.01300   0.01000  -0.00130
C149      0.02700   0.03500   0.01900   0.01400   0.01090   0.00330
C150      0.02200   0.02800   0.03200   0.00380   0.00800  -0.00160
C152      0.03000   0.03200   0.02400   0.00560   0.01300   0.00780
C154      0.02600   0.03300   0.02300   0.01060   0.00880   0.00750
C155      0.03200   0.03000   0.02800   0.00210   0.00600   0.00020
C157      0.03100   0.03100   0.02800   0.00150   0.01000   0.00450
C159      0.04600   0.03700   0.02100   0.01400   0.01200   0.00170
C162      0.03300   0.02800   0.02100   0.00180   0.00970   0.00260
Zn163     0.01800   0.02690   0.01390  -0.00153   0.00480   0.00127
O164      0.02640   0.03840   0.02180   0.00400   0.00780   0.00670
O165      0.03400   0.04300   0.03700  -0.00220   0.01430   0.00390
O166      0.02860   0.03110   0.02380   0.00590   0.01390   0.00410
O167      0.08200   0.04400   0.02810   0.02500   0.02800   0.00650
N168      0.01720   0.02550   0.02050   0.00160   0.00650  -0.00520
N169      0.03800   0.02510   0.02900  -0.00020   0.01350  -0.01030
N171      0.02180   0.02810   0.01610  -0.00260   0.00850   0.00220
N172      0.02700   0.02950   0.01700  -0.00870   0.00490  -0.00140
C174      0.02000   0.02900   0.01380  -0.00130   0.00740  -0.00160
C175      0.02200   0.03200   0.01270   0.00170   0.00860   0.00030
C176      0.01900   0.03300   0.02500   0.00560   0.00530  -0.00620
C177      0.01600   0.03300   0.01490   0.00380   0.00350  -0.00140
C178      0.01200   0.03600   0.01900   0.00380   0.00640  -0.00160
C179      0.02300   0.03700   0.01600  -0.00240   0.00920   0.00150
C180      0.01900   0.05000   0.01800  -0.00030   0.00790  -0.00750
C183      0.02500   0.02800   0.04300  -0.00450   0.00800  -0.01100
C187      0.04000   0.03800   0.06400   0.00700   0.01600  -0.02200
C191      0.03200   0.03500   0.03400  -0.00600   0.01300  -0.00500
C195      0.04400   0.04500   0.02800  -0.01700   0.01700  -0.00200
C199      0.03100   0.04100   0.01900  -0.00200   0.01200  -0.00390
C200      0.03100   0.04300   0.01800   0.01300   0.01000  -0.00130
C203      0.02700   0.03500   0.01900   0.01400   0.01090   0.00330
C204      0.02200   0.02800   0.03200   0.00380   0.00800  -0.00160
C206      0.03000   0.03200   0.02400   0.00560   0.01300   0.00780
C208      0.02600   0.03300   0.02300   0.01060   0.00880   0.00750
C209      0.03200   0.03000   0.02800   0.00210   0.00600   0.00020
C211      0.03100   0.03100   0.02800   0.00150   0.01000   0.00450
C213      0.04600   0.03700   0.02100   0.01400   0.01200   0.00170
C216      0.03300   0.02800   0.02100   0.00180   0.00970   0.00260
Zn217     0.01800   0.02690   0.01390   0.00153   0.00480  -0.00127
O218      0.02640   0.03840   0.02180  -0.00400   0.00780  -0.00670
O219      0.03400   0.04300   0.03700   0.00220   0.01430  -0.00390
O220      0.02860   0.03110   0.02380  -0.00590   0.01390  -0.00410
O221      0.08200   0.04400   0.02810  -0.02500   0.02800  -0.00650
N222      0.01720   0.02550   0.02050  -0.00160   0.00650   0.00520
N223      0.03800   0.02510   0.02900   0.00020   0.01350   0.01030
N225      0.02180   0.02810   0.01610   0.00260   0.00850  -0.00220
N226      0.02700   0.02950   0.01700   0.00870   0.00490   0.00140
C228      0.02000   0.02900   0.01380   0.00130   0.00740   0.00160
C229      0.02200   0.03200   0.01270  -0.00170   0.00860  -0.00030
C230      0.01900   0.03300   0.02500  -0.00560   0.00530   0.00620
C231      0.01600   0.03300   0.01490  -0.00380   0.00350   0.00140
C232      0.01200   0.03600   0.01900  -0.00380   0.00640   0.00160
C233      0.02300   0.03700   0.01600   0.00240   0.00920  -0.00150
C234      0.01900   0.05000   0.01800   0.00030   0.00790   0.00750
C237      0.02500   0.02800   0.04300   0.00450   0.00800   0.01100
C241      0.04000   0.03800   0.06400  -0.00700   0.01600   0.02200
C245      0.03200   0.03500   0.03400   0.00600   0.01300   0.00500
C249      0.04400   0.04500   0.02800   0.01700   0.01700   0.00200
C253      0.03100   0.04100   0.01900   0.00200   0.01200   0.00390
C254      0.03100   0.04300   0.01800  -0.01300   0.01000   0.00130
C257      0.02700   0.03500   0.01900  -0.01400   0.01090  -0.00330
C258      0.02200   0.02800   0.03200  -0.00380   0.00800   0.00160
C260      0.03000   0.03200   0.02400  -0.00560   0.01300  -0.00780
C262      0.02600   0.03300   0.02300  -0.01060   0.00880  -0.00750
C263      0.03200   0.03000   0.02800  -0.00210   0.00600  -0.00020
C265      0.03100   0.03100   0.02800  -0.00150   0.01000  -0.00450
C267      0.04600   0.03700   0.02100  -0.01400   0.01200  -0.00170
C270      0.03300   0.02800   0.02100  -0.00180   0.00970  -0.00260
Zn271     0.01800   0.02690   0.01390   0.00153   0.00480  -0.00127
O272      0.02640   0.03840   0.02180  -0.00400   0.00780  -0.00670
O273      0.03400   0.04300   0.03700   0.00220   0.01430  -0.00390
O274      0.02860   0.03110   0.02380  -0.00590   0.01390  -0.00410
O275      0.08200   0.04400   0.02810  -0.02500   0.02800  -0.00650
N276      0.01720   0.02550   0.02050  -0.00160   0.00650   0.00520
N277      0.03800   0.02510   0.02900   0.00020   0.01350   0.01030
N279      0.02180   0.02810   0.01610   0.00260   0.00850  -0.00220
N280      0.02700   0.02950   0.01700   0.00870   0.00490   0.00140
C282      0.02000   0.02900   0.01380   0.00130   0.00740   0.00160
C283      0.02200   0.03200   0.01270  -0.00170   0.00860  -0.00030
C284      0.01900   0.03300   0.02500  -0.00560   0.00530   0.00620
C285      0.01600   0.03300   0.01490  -0.00380   0.00350   0.00140
C286      0.01200   0.03600   0.01900  -0.00380   0.00640   0.00160
C287      0.02300   0.03700   0.01600   0.00240   0.00920  -0.00150
C288      0.01900   0.05000   0.01800   0.00030   0.00790   0.00750
C291      0.02500   0.02800   0.04300   0.00450   0.00800   0.01100
C295      0.04000   0.03800   0.06400  -0.00700   0.01600   0.02200
C299      0.03200   0.03500   0.03400   0.00600   0.01300   0.00500
C303      0.04400   0.04500   0.02800   0.01700   0.01700   0.00200
C307      0.03100   0.04100   0.01900   0.00200   0.01200   0.00390
C308      0.03100   0.04300   0.01800  -0.01300   0.01000   0.00130
C311      0.02700   0.03500   0.01900  -0.01400   0.01090  -0.00330
C312      0.02200   0.02800   0.03200  -0.00380   0.00800   0.00160
C314      0.03000   0.03200   0.02400  -0.00560   0.01300  -0.00780
C316      0.02600   0.03300   0.02300  -0.01060   0.00880  -0.00750
C317      0.03200   0.03000   0.02800  -0.00210   0.00600  -0.00020
C319      0.03100   0.03100   0.02800  -0.00150   0.01000  -0.00450
C321      0.04600   0.03700   0.02100  -0.01400   0.01200  -0.00170
C324      0.03300   0.02800   0.02100  -0.00180   0.00970  -0.00260
Zn325     0.01800   0.02690   0.01390  -0.00153   0.00480   0.00127
O326      0.02640   0.03840   0.02180   0.00400   0.00780   0.00670
O327      0.03400   0.04300   0.03700  -0.00220   0.01430   0.00390
O328      0.02860   0.03110   0.02380   0.00590   0.01390   0.00410
O329      0.08200   0.04400   0.02810   0.02500   0.02800   0.00650
N330      0.01720   0.02550   0.02050   0.00160   0.00650  -0.00520
N331      0.03800   0.02510   0.02900  -0.00020   0.01350  -0.01030
N333      0.02180   0.02810   0.01610  -0.00260   0.00850   0.00220
N334      0.02700   0.02950   0.01700  -0.00870   0.00490  -0.00140
C336      0.02000   0.02900   0.01380  -0.00130   0.00740  -0.00160
C337      0.02200   0.03200   0.01270   0.00170   0.00860   0.00030
C338      0.01900   0.03300   0.02500   0.00560   0.00530  -0.00620
C339      0.01600   0.03300   0.01490   0.00380   0.00350  -0.00140
C340      0.01200   0.03600   0.01900   0.00380   0.00640  -0.00160
C341      0.02300   0.03700   0.01600  -0.00240   0.00920   0.00150
C342      0.01900   0.05000   0.01800  -0.00030   0.00790  -0.00750
C345      0.02500   0.02800   0.04300  -0.00450   0.00800  -0.01100
C349      0.04000   0.03800   0.06400   0.00700   0.01600  -0.02200
C353      0.03200   0.03500   0.03400  -0.00600   0.01300  -0.00500
C357      0.04400   0.04500   0.02800  -0.01700   0.01700  -0.00200
C361      0.03100   0.04100   0.01900  -0.00200   0.01200  -0.00390
C362      0.03100   0.04300   0.01800   0.01300   0.01000  -0.00130
C365      0.02700   0.03500   0.01900   0.01400   0.01090   0.00330
C366      0.02200   0.02800   0.03200   0.00380   0.00800  -0.00160
C368      0.03000   0.03200   0.02400   0.00560   0.01300   0.00780
C370      0.02600   0.03300   0.02300   0.01060   0.00880   0.00750
C371      0.03200   0.03000   0.02800   0.00210   0.00600   0.00020
C373      0.03100   0.03100   0.02800   0.00150   0.01000   0.00450
C375      0.04600   0.03700   0.02100   0.01400   0.01200   0.00170
C378      0.03300   0.02800   0.02100   0.00180   0.00970   0.00260
Zn379     0.01800   0.02690   0.01390  -0.00153   0.00480   0.00127
O380      0.02640   0.03840   0.02180   0.00400   0.00780   0.00670
O381      0.03400   0.04300   0.03700  -0.00220   0.01430   0.00390
O382      0.02860   0.03110   0.02380   0.00590   0.01390   0.00410
O383      0.08200   0.04400   0.02810   0.02500   0.02800   0.00650
N384      0.01720   0.02550   0.02050   0.00160   0.00650  -0.00520
N385      0.03800   0.02510   0.02900  -0.00020   0.01350  -0.01030
N387      0.02180   0.02810   0.01610  -0.00260   0.00850   0.00220
N388      0.02700   0.02950   0.01700  -0.00870   0.00490  -0.00140
C390      0.02000   0.02900   0.01380  -0.00130   0.00740  -0.00160
C391      0.02200   0.03200   0.01270   0.00170   0.00860   0.00030
C392      0.01900   0.03300   0.02500   0.00560   0.00530  -0.00620
C393      0.01600   0.03300   0.01490   0.00380   0.00350  -0.00140
C394      0.01200   0.03600   0.01900   0.00380   0.00640  -0.00160
C395      0.02300   0.03700   0.01600  -0.00240   0.00920   0.00150
C396      0.01900   0.05000   0.01800  -0.00030   0.00790  -0.00750
C399      0.02500   0.02800   0.04300  -0.00450   0.00800  -0.01100
C403      0.04000   0.03800   0.06400   0.00700   0.01600  -0.02200
C407      0.03200   0.03500   0.03400  -0.00600   0.01300  -0.00500
C411      0.04400   0.04500   0.02800  -0.01700   0.01700  -0.00200
C415      0.03100   0.04100   0.01900  -0.00200   0.01200  -0.00390
C416      0.03100   0.04300   0.01800   0.01300   0.01000  -0.00130
C419      0.02700   0.03500   0.01900   0.01400   0.01090   0.00330
C420      0.02200   0.02800   0.03200   0.00380   0.00800  -0.00160
C422      0.03000   0.03200   0.02400   0.00560   0.01300   0.00780
C424      0.02600   0.03300   0.02300   0.01060   0.00880   0.00750
C425      0.03200   0.03000   0.02800   0.00210   0.00600   0.00020
C427      0.03100   0.03100   0.02800   0.00150   0.01000   0.00450
C429      0.04600   0.03700   0.02100   0.01400   0.01200   0.00170
C432      0.03300   0.02800   0.02100   0.00180   0.00970   0.00260
loop_
_geom_bond_atom_site_label_1
_geom_bond_atom_site_label_2
_geom_bond_distance
_geom_bond_site_symmetry_2
_ccdc_geom_bond_type
Zn1    O2      1.978   .     S
Zn1    N9      2.008   .     S
Zn1    O166    1.955   .     S
Zn1    N114    2.027   .     S
O2     C37     1.289   .     S
O3     C37     1.238   .     S
O4     C54     1.279   1_556 S
O4     Zn163   1.955   1_566 S
O5     C54     1.257   .     S
N6     N7      1.357   .     S
N6     C12     1.335   .     S
N6     Zn109   2.027   .     S
N7     H8      0.860   1_554 S
N7     C14     1.243   .     S
H8     N7      0.860   1_556 S
N9     N10     1.343   .     S
N9     C15     1.344   .     S
N10    H11     0.860   .     S
N10    C17     1.344   .     S
C12    C13     1.405   1_655 S
C12    C21     1.469   .     S
C13    C12     1.405   1_455 S
C13    C18     1.501   .     S
C13    C14     1.377   1_455 S
C14    C25     1.508   1_655 S
C14    C13     1.377   1_655 S
C15    C16     1.405   .     S
C15    C29     1.492   .     S
C16    C17     1.368   .     S
C16    C18     1.508   .     S
C17    C33     1.493   .     S
C18    H19     0.969   .     S
C18    H20     0.970   .     S
C21    H22     0.961   1_655 S
C21    H23     0.960   .     S
C21    H24     0.960   .     S
H22    C21     0.961   1_455 S
C25    C14     1.508   1_455 S
C25    H26     0.959   .     S
C25    H27     0.960   1_554 S
C25    H28     0.960   .     S
H27    C25     0.960   1_556 S
C29    H30     0.960   .     S
C29    H31     0.959   .     S
C29    H32     0.961   .     S
C33    H34     0.960   .     S
C33    H35     0.960   .     S
C33    H36     0.960   .     S
C37    C38     1.507   .     S
C38    H39     0.970   .     S
C38    H40     0.970   .     S
C38    C41     1.518   .     S
C41    C42     1.397   .     S
C41    C49     1.379   .     S
C42    H43     0.930   .     S
C42    C44     1.397   .     S
C44    H45     0.930   .     S
C44    C46     1.367   .     S
C46    C47     1.383   .     S
C46    C51     1.514   .     S
C47    H48     0.930   .     S
C47    C49     1.359   .     S
C49    H50     0.930   .     S
C51    H52     0.969   .     S
C51    H53     0.970   .     S
C51    C54     1.491   1_556 S
C54    O4      1.279   1_554 S
C54    C51     1.491   1_554 S
Zn55   O56     1.978   .     S
Zn55   N63     2.008   .     S
Zn55   O112    1.955   1_545 S
Zn55   N168    2.027   .     S
O56    C91     1.289   .     S
O57    C91     1.238   .     S
O58    C108    1.279   1_556 S
O58    Zn109   1.955   1_556 S
O59    C108    1.257   .     S
N60    N61     1.357   .     S
N60    C66     1.335   .     S
N60    Zn163   2.027   .     S
N61    H62     0.860   1_554 S
N61    C68     1.243   .     S
H62    N61     0.860   1_556 S
N63    N64     1.343   1_545 S
N63    C69     1.344   .     S
N64    N63     1.343   1_565 S
N64    H65     0.860   .     S
N64    C71     1.344   .     S
C66    C67     1.405   .     S
C66    C75     1.469   1_545 S
C67    C72     1.501   .     S
C67    C68     1.377   .     S
C68    C79     1.508   .     S
C69    C70     1.405   .     S
C69    C83     1.492   .     S
C70    C71     1.368   1_545 S
C70    C72     1.508   .     S
C71    C87     1.493   .     S
C71    C70     1.368   1_565 S
C72    H73     0.969   .     S
C72    H74     0.970   .     S
C75    C66     1.469   1_565 S
C75    H76     0.961   .     S
C75    H77     0.960   .     S
C75    H78     0.960   .     S
C79    H80     0.959   .     S
C79    H81     0.960   1_554 S
C79    H82     0.960   .     S
H81    C79     0.960   1_556 S
C83    H84     0.960   .     S
C83    H85     0.959   .     S
C83    H86     0.961   .     S
C87    H88     0.960   .     S
C87    H89     0.960   .     S
C87    H90     0.960   .     S
C91    C92     1.507   .     S
C92    H93     0.970   .     S
C92    H94     0.970   .     S
C92    C95     1.518   .     S
C95    C96     1.397   .     S
C95    C103    1.379   .     S
C96    H97     0.930   .     S
C96    C98     1.397   .     S
C98    H99     0.930   .     S
C98    C100    1.367   .     S
C100   C101    1.383   .     S
C100   C105    1.514   .     S
C101   H102    0.930   .     S
C101   C103    1.359   .     S
C103   H104    0.930   .     S
C105   H106    0.969   .     S
C105   H107    0.970   .     S
C105   C108    1.491   1_556 S
C108   O58     1.279   1_554 S
C108   C105    1.491   1_554 S
Zn109  O110    1.978   1_554 S
Zn109  N117    2.008   .     S
Zn109  O58     1.955   1_554 S
O110   Zn109   1.978   1_556 S
O110   C145    1.289   .     S
O111   C145    1.238   .     S
O112   C162    1.279   .     S
O112   Zn55    1.955   1_565 S
O113   C162    1.257   .     S
N114   N115    1.357   .     S
N114   C120    1.335   .     S
N115   H116    0.860   .     S
N115   C122    1.243   .     S
N117   N118    1.343   .     S
N117   C123    1.344   .     S
N118   H119    0.860   .     S
N118   C125    1.344   .     S
C120   C121    1.405   1_455 S
C120   C129    1.469   .     S
C121   C120    1.405   1_655 S
C121   C126    1.501   .     S
C121   C122    1.377   1_655 S
C122   C133    1.508   1_455 S
C122   C121    1.377   1_455 S
C123   C124    1.405   .     S
C123   C137    1.492   .     S
C124   C125    1.368   .     S
C124   C126    1.508   .     S
C125   C141    1.493   .     S
C126   H127    0.969   .     S
C126   H128    0.970   .     S
C129   H130    0.961   1_455 S
C129   H131    0.960   .     S
C129   H132    0.960   .     S
H130   C129    0.961   1_655 S
C133   C122    1.508   1_655 S
C133   H134    0.959   .     S
C133   H135    0.960   .     S
C133   H136    0.960   .     S
C137   H138    0.960   .     S
C137   H139    0.959   .     S
C137   H140    0.961   .     S
C141   H142    0.960   .     S
C141   H143    0.960   .     S
C141   H144    0.960   .     S
C145   C146    1.507   .     S
C146   H147    0.970   .     S
C146   H148    0.970   .     S
C146   C149    1.518   .     S
C149   C150    1.397   .     S
C149   C157    1.379   .     S
C150   H151    0.930   .     S
C150   C152    1.397   .     S
C152   H153    0.930   .     S
C152   C154    1.367   .     S
C154   C155    1.383   .     S
C154   C159    1.514   .     S
C155   H156    0.930   .     S
C155   C157    1.359   .     S
C157   H158    0.930   .     S
C159   H160    0.969   .     S
C159   H161    0.970   .     S
C159   C162    1.491   .     S
Zn163  O164    1.978   1_554 S
Zn163  N171    2.008   .     S
Zn163  O4      1.955   1_544 S
O164   Zn163   1.978   1_556 S
O164   C199    1.289   .     S
O165   C199    1.238   .     S
O166   C216    1.279   .     S
O167   C216    1.257   .     S
N168   N169    1.357   .     S
N168   C174    1.335   .     S
N169   H170    0.860   .     S
N169   C176    1.243   .     S
N171   N172    1.343   1_545 S
N171   C177    1.344   .     S
N172   N171    1.343   1_565 S
N172   H173    0.860   .     S
N172   C179    1.344   .     S
C174   C175    1.405   .     S
C174   C183    1.469   1_545 S
C175   C180    1.501   .     S
C175   C176    1.377   .     S
C176   C187    1.508   .     S
C177   C178    1.405   .     S
C177   C191    1.492   .     S
C178   C179    1.368   1_545 S
C178   C180    1.508   .     S
C179   C195    1.493   .     S
C179   C178    1.368   1_565 S
C180   H181    0.969   .     S
C180   H182    0.970   .     S
C183   C174    1.469   1_565 S
C183   H184    0.961   .     S
C183   H185    0.960   .     S
C183   H186    0.960   .     S
C187   H188    0.959   .     S
C187   H189    0.960   .     S
C187   H190    0.960   .     S
C191   H192    0.960   .     S
C191   H193    0.959   .     S
C191   H194    0.961   .     S
C195   H196    0.960   .     S
C195   H197    0.960   .     S
C195   H198    0.960   .     S
C199   C200    1.507   .     S
C200   H201    0.970   .     S
C200   H202    0.970   .     S
C200   C203    1.518   .     S
C203   C204    1.397   .     S
C203   C211    1.379   .     S
C204   H205    0.930   .     S
C204   C206    1.397   .     S
C206   H207    0.930   .     S
C206   C208    1.367   .     S
C208   C209    1.383   .     S
C208   C213    1.514   .     S
C209   H210    0.930   .     S
C209   C211    1.359   .     S
C211   H212    0.930   .     S
C213   H214    0.969   .     S
C213   H215    0.970   .     S
C213   C216    1.491   .     S
Zn217  O218    1.978   .     S
Zn217  N225    2.008   .     S
Zn217  O382    1.955   .     S
Zn217  N330    2.027   .     S
O218   C253    1.289   .     S
O219   C253    1.238   .     S
O220   C270    1.279   1_554 S
O220   Zn379   1.955   1_544 S
O221   C270    1.257   .     S
N222   N223    1.357   .     S
N222   C228    1.335   .     S
N222   Zn325   2.027   .     S
N223   H224    0.860   1_556 S
N223   C230    1.243   .     S
H224   N223    0.860   1_554 S
N225   N226    1.343   .     S
N225   C231    1.344   .     S
N226   H227    0.860   .     S
N226   C233    1.344   .     S
C228   C229    1.405   1_455 S
C228   C237    1.469   .     S
C229   C228    1.405   1_655 S
C229   C234    1.501   .     S
C229   C230    1.377   1_655 S
C230   C241    1.508   1_455 S
C230   C229    1.377   1_455 S
C231   C232    1.405   .     S
C231   C245    1.492   .     S
C232   C233    1.368   .     S
C232   C234    1.508   .     S
C233   C249    1.493   .     S
C234   H235    0.969   .     S
C234   H236    0.970   .     S
C237   H238    0.961   1_455 S
C237   H239    0.960   .     S
C237   H240    0.960   .     S
H238   C237    0.961   1_655 S
C241   C230    1.508   1_655 S
C241   H242    0.959   .     S
C241   H243    0.960   1_556 S
C241   H244    0.960   .     S
H243   C241    0.960   1_554 S
C245   H246    0.960   .     S
C245   H247    0.959   .     S
C245   H248    0.961   .     S
C249   H250    0.960   .     S
C249   H251    0.960   .     S
C249   H252    0.960   .     S
C253   C254    1.507   .     S
C254   H255    0.970   .     S
C254   H256    0.970   .     S
C254   C257    1.518   .     S
C257   C258    1.397   .     S
C257   C265    1.379   .     S
C258   H259    0.930   .     S
C258   C260    1.397   .     S
C260   H261    0.930   .     S
C260   C262    1.367   .     S
C262   C263    1.383   .     S
C262   C267    1.514   .     S
C263   H264    0.930   .     S
C263   C265    1.359   .     S
C265   H266    0.930   .     S
C267   H268    0.969   .     S
C267   H269    0.970   .     S
C267   C270    1.491   1_554 S
C270   O220    1.279   1_556 S
C270   C267    1.491   1_556 S
Zn271  O272    1.978   .     S
Zn271  N279    2.008   .     S
Zn271  O328    1.955   1_565 S
Zn271  N384    2.027   .     S
O272   C307    1.289   .     S
O273   C307    1.238   .     S
O274   C324    1.279   1_554 S
O274   Zn325   1.955   1_554 S
O275   C324    1.257   .     S
N276   N277    1.357   .     S
N276   C282    1.335   .     S
N276   Zn379   2.027   .     S
N277   H278    0.860   1_556 S
N277   C284    1.243   .     S
H278   N277    0.860   1_554 S
N279   N280    1.343   1_565 S
N279   C285    1.344   .     S
N280   N279    1.343   1_545 S
N280   H281    0.860   .     S
N280   C287    1.344   .     S
C282   C283    1.405   .     S
C282   C291    1.469   1_565 S
C283   C288    1.501   .     S
C283   C284    1.377   .     S
C284   C295    1.508   .     S
C285   C286    1.405   .     S
C285   C299    1.492   .     S
C286   C287    1.368   1_565 S
C286   C288    1.508   .     S
C287   C303    1.493   .     S
C287   C286    1.368   1_545 S
C288   H289    0.969   .     S
C288   H290    0.970   .     S
C291   C282    1.469   1_545 S
C291   H292    0.961   .     S
C291   H293    0.960   .     S
C291   H294    0.960   .     S
C295   H296    0.959   .     S
C295   H297    0.960   1_556 S
C295   H298    0.960   .     S
H297   C295    0.960   1_554 S
C299   H300    0.960   .     S
C299   H301    0.959   .     S
C299   H302    0.961   .     S
C303   H304    0.960   .     S
C303   H305    0.960   .     S
C303   H306    0.960   .     S
C307   C308    1.507   .     S
C308   H309    0.970   .     S
C308   H310    0.970   .     S
C308   C311    1.518   .     S
C311   C312    1.397   .     S
C311   C319    1.379   .     S
C312   H313    0.930   .     S
C312   C314    1.397   .     S
C314   H315    0.930   .     S
C314   C316    1.367   .     S
C316   C317    1.383   .     S
C316   C321    1.514   .     S
C317   H318    0.930   .     S
C317   C319    1.359   .     S
C319   H320    0.930   .     S
C321   H322    0.969   .     S
C321   H323    0.970   .     S
C321   C324    1.491   1_554 S
C324   O274    1.279   1_556 S
C324   C321    1.491   1_556 S
Zn325  O326    1.978   1_556 S
Zn325  N333    2.008   .     S
Zn325  O274    1.955   1_556 S
O326   Zn325   1.978   1_554 S
O326   C361    1.289   .     S
O327   C361    1.238   .     S
O328   C378    1.279   .     S
O328   Zn271   1.955   1_545 S
O329   C378    1.257   .     S
N330   N331    1.357   .     S
N330   C336    1.335   .     S
N331   H332    0.860   .     S
N331   C338    1.243   .     S
N333   N334    1.343   .     S
N333   C339    1.344   .     S
N334   H335    0.860   .     S
N334   C341    1.344   .     S
C336   C337    1.405   1_655 S
C336   C345    1.469   .     S
C337   C336    1.405   1_455 S
C337   C342    1.501   .     S
C337   C338    1.377   1_455 S
C338   C349    1.508   1_655 S
C338   C337    1.377   1_655 S
C339   C340    1.405   .     S
C339   C353    1.492   .     S
C340   C341    1.368   .     S
C340   C342    1.508   .     S
C341   C357    1.493   .     S
C342   H343    0.969   .     S
C342   H344    0.970   .     S
C345   H346    0.961   1_655 S
C345   H347    0.960   .     S
C345   H348    0.960   .     S
H346   C345    0.961   1_455 S
C349   C338    1.508   1_455 S
C349   H350    0.959   .     S
C349   H351    0.960   .     S
C349   H352    0.960   .     S
C353   H354    0.960   .     S
C353   H355    0.959   .     S
C353   H356    0.961   .     S
C357   H358    0.960   .     S
C357   H359    0.960   .     S
C357   H360    0.960   .     S
C361   C362    1.507   .     S
C362   H363    0.970   .     S
C362   H364    0.970   .     S
C362   C365    1.518   .     S
C365   C366    1.397   .     S
C365   C373    1.379   .     S
C366   H367    0.930   .     S
C366   C368    1.397   .     S
C368   H369    0.930   .     S
C368   C370    1.367   .     S
C370   C371    1.383   .     S
C370   C375    1.514   .     S
C371   H372    0.930   .     S
C371   C373    1.359   .     S
C373   H374    0.930   .     S
C375   H376    0.969   .     S
C375   H377    0.970   .     S
C375   C378    1.491   .     S
Zn379  O380    1.978   1_556 S
Zn379  N387    2.008   .     S
Zn379  O220    1.955   1_566 S
O380   Zn379   1.978   1_554 S
O380   C415    1.289   .     S
O381   C415    1.238   .     S
O382   C432    1.279   .     S
O383   C432    1.257   .     S
N384   N385    1.357   .     S
N384   C390    1.335   .     S
N385   H386    0.860   .     S
N385   C392    1.243   .     S
N387   N388    1.343   1_565 S
N387   C393    1.344   .     S
N388   N387    1.343   1_545 S
N388   H389    0.860   .     S
N388   C395    1.344   .     S
C390   C391    1.405   .     S
C390   C399    1.469   1_565 S
C391   C396    1.501   .     S
C391   C392    1.377   .     S
C392   C403    1.508   .     S
C393   C394    1.405   .     S
C393   C407    1.492   .     S
C394   C395    1.368   1_565 S
C394   C396    1.508   .     S
C395   C411    1.493   .     S
C395   C394    1.368   1_545 S
C396   H397    0.969   .     S
C396   H398    0.970   .     S
C399   C390    1.469   1_545 S
C399   H400    0.961   .     S
C399   H401    0.960   .     S
C399   H402    0.960   .     S
C403   H404    0.959   .     S
C403   H405    0.960   .     S
C403   H406    0.960   .     S
C407   H408    0.960   .     S
C407   H409    0.959   .     S
C407   H410    0.961   .     S
C411   H412    0.960   .     S
C411   H413    0.960   .     S
C411   H414    0.960   .     S
C415   C416    1.507   .     S
C416   H417    0.970   .     S
C416   H418    0.970   .     S
C416   C419    1.518   .     S
C419   C420    1.397   .     S
C419   C427    1.379   .     S
C420   H421    0.930   .     S
C420   C422    1.397   .     S
C422   H423    0.930   .     S
C422   C424    1.367   .     S
C424   C425    1.383   .     S
C424   C429    1.514   .     S
C425   H426    0.930   .     S
C425   C427    1.359   .     S
C427   H428    0.930   .     S
C429   H430    0.969   .     S
C429   H431    0.970   .     S
C429   C432    1.491   .     S
