data_OZEYIE_FSR
_audit_creation_date              2024-06-11
_audit_creation_method            'Materials Studio'
_symmetry_space_group_name_H-M    'P1'
_symmetry_Int_Tables_number       1
_symmetry_cell_setting            triclinic
loop_
_symmetry_equiv_pos_as_xyz
  x,y,z
_cell_length_a                    23.7710
_cell_length_b                    7.8850
_cell_length_c                    29.9860
_cell_angle_alpha                 90.0000
_cell_angle_beta                  97.8810
_cell_angle_gamma                 90.0000
loop_
_atom_site_label
_atom_site_type_symbol
_atom_site_fract_x
_atom_site_fract_y
_atom_site_fract_z
_atom_site_U_iso_or_equiv
_atom_site_adp_type
_atom_site_occupancy
Ba1    Ba    0.22434   0.26219   0.76656   0.00000  Uiso   1.00
O2     O     0.25708   0.58490   0.80965   0.00000  Uiso   1.00
O3     O     0.27684   0.36280   0.85507   0.00000  Uiso   1.00
O4     O     0.68615   0.94790   0.21730   0.00000  Uiso   1.00
O5     O     0.63063   0.16300   0.19207   0.00000  Uiso   1.00
O6     O     0.68228   0.42600   0.76429   0.00000  Uiso   1.00
O7     O     0.69270   0.50940   0.83525   0.00000  Uiso   1.00
O8     O     0.12143   0.33580   0.79770   0.00000  Uiso   1.00
H9     H     0.11229   0.25247   0.81320   0.00000  Uiso   1.00
H10    H     0.09581   0.34834   0.77522   0.00000  Uiso   1.00
N11    N     0.39301   0.50010   0.91626   0.00000  Uiso   1.00
N12    N     0.34045   0.55230   0.91855   0.00000  Uiso   1.00
N13    N     0.32104   0.50670   0.95643   0.00000  Uiso   1.00
N14    N     0.36268   0.42140   0.98000   0.00000  Uiso   1.00
N15    N     0.49864   0.10820   0.09945   0.00000  Uiso   1.00
N16    N     0.52239   0.02120   0.13486   0.00000  Uiso   1.00
N17    N     0.57257   0.97540   0.12546   0.00000  Uiso   1.00
N18    N     0.58453   0.02860   0.08557   0.00000  Uiso   1.00
N19    N     0.58245   0.28210   0.87718   0.00000  Uiso   1.00
N20    N     0.62946   0.24330   0.86085   0.00000  Uiso   1.00
N21    N     0.66600   0.15700   0.89010   0.00000  Uiso   1.00
N22    N     0.64380   0.15400   0.92830   0.00000  Uiso   1.00
C23    C     0.27789   0.51720   0.84602   0.00000  Uiso   1.00
C24    C     0.30604   0.63990   0.88183   0.00000  Uiso   1.00
H25    H     0.32983   0.71849   0.86798   0.00000  Uiso   1.00
H26    H     0.27690   0.70524   0.89379   0.00000  Uiso   1.00
C27    C     0.40581   0.41880   0.95510   0.00000  Uiso   1.00
C28    C     0.46078   0.33760   0.96923   0.00000  Uiso   1.00
C29    C     0.50110   0.33240   0.93954   0.00000  Uiso   1.00
H30    H     0.49304   0.38024   0.91103   0.00000  Uiso   1.00
C31    C     0.55370   0.25510   0.95280   0.00000  Uiso   1.00
C32    C     0.56532   0.18470   0.99528   0.00000  Uiso   1.00
H33    H     0.60035   0.13350   0.00402   0.00000  Uiso   1.00
C34    C     0.52559   0.18920   0.02506   0.00000  Uiso   1.00
C35    C     0.47290   0.26520   0.01163   0.00000  Uiso   1.00
H36    H     0.44578   0.26728   0.03123   0.00000  Uiso   1.00
C37    C     0.53666   0.11030   0.06960   0.00000  Uiso   1.00
C38    C     0.61400   0.88830   0.15832   0.00000  Uiso   1.00
H39    H     0.64107   0.82857   0.14258   0.00000  Uiso   1.00
H40    H     0.59454   0.80517   0.17449   0.00000  Uiso   1.00
C41    C     0.64550   0.01210   0.19183   0.00000  Uiso   1.00
C42    C     0.59420   0.24260   0.92031   0.00000  Uiso   1.00
C43    C     0.63680   0.26230   0.81392   0.00000  Uiso   1.00
H44    H     0.59960   0.27645   0.79641   0.00000  Uiso   1.00
H45    H     0.65321   0.15908   0.80378   0.00000  Uiso   1.00
C46    C     0.67380   0.41260   0.80456   0.00000  Uiso   1.00
Ba47   Ba    0.72434   0.76219   0.76656   0.00000  Uiso   1.00
O48    O     0.75708   0.08490   0.80965   0.00000  Uiso   1.00
O49    O     0.77684   0.86280   0.85507   0.00000  Uiso   1.00
O50    O     0.18615   0.44790   0.21730   0.00000  Uiso   1.00
O51    O     0.13063   0.66300   0.19207   0.00000  Uiso   1.00
O52    O     0.18228   0.92600   0.76429   0.00000  Uiso   1.00
O53    O     0.19270   0.00940   0.83525   0.00000  Uiso   1.00
O54    O     0.62143   0.83580   0.79770   0.00000  Uiso   1.00
H55    H     0.61229   0.75247   0.81320   0.00000  Uiso   1.00
H56    H     0.59581   0.84834   0.77522   0.00000  Uiso   1.00
N57    N     0.89301   0.00010   0.91626   0.00000  Uiso   1.00
N58    N     0.84045   0.05230   0.91855   0.00000  Uiso   1.00
N59    N     0.82104   0.00670   0.95643   0.00000  Uiso   1.00
N60    N     0.86268   0.92140   0.98000   0.00000  Uiso   1.00
N61    N     0.99864   0.60820   0.09945   0.00000  Uiso   1.00
N62    N     0.02239   0.52120   0.13486   0.00000  Uiso   1.00
N63    N     0.07257   0.47540   0.12546   0.00000  Uiso   1.00
N64    N     0.08453   0.52860   0.08557   0.00000  Uiso   1.00
N65    N     0.08245   0.78210   0.87718   0.00000  Uiso   1.00
N66    N     0.12946   0.74330   0.86085   0.00000  Uiso   1.00
N67    N     0.16600   0.65700   0.89010   0.00000  Uiso   1.00
N68    N     0.14380   0.65400   0.92830   0.00000  Uiso   1.00
C69    C     0.77789   0.01720   0.84602   0.00000  Uiso   1.00
C70    C     0.80604   0.13990   0.88183   0.00000  Uiso   1.00
H71    H     0.82983   0.21849   0.86798   0.00000  Uiso   1.00
H72    H     0.77690   0.20524   0.89379   0.00000  Uiso   1.00
C73    C     0.90581   0.91880   0.95510   0.00000  Uiso   1.00
C74    C     0.96078   0.83760   0.96923   0.00000  Uiso   1.00
C75    C     0.00110   0.83240   0.93954   0.00000  Uiso   1.00
H76    H     0.99304   0.88024   0.91103   0.00000  Uiso   1.00
C77    C     0.05370   0.75510   0.95280   0.00000  Uiso   1.00
C78    C     0.06532   0.68470   0.99528   0.00000  Uiso   1.00
H79    H     0.10035   0.63350   0.00402   0.00000  Uiso   1.00
C80    C     0.02559   0.68920   0.02506   0.00000  Uiso   1.00
C81    C     0.97290   0.76520   0.01163   0.00000  Uiso   1.00
H82    H     0.94578   0.76728   0.03123   0.00000  Uiso   1.00
C83    C     0.03666   0.61030   0.06960   0.00000  Uiso   1.00
C84    C     0.11400   0.38830   0.15832   0.00000  Uiso   1.00
H85    H     0.14107   0.32857   0.14258   0.00000  Uiso   1.00
H86    H     0.09454   0.30517   0.17449   0.00000  Uiso   1.00
C87    C     0.14550   0.51210   0.19183   0.00000  Uiso   1.00
C88    C     0.09420   0.74260   0.92031   0.00000  Uiso   1.00
C89    C     0.13680   0.76230   0.81392   0.00000  Uiso   1.00
H90    H     0.09960   0.77645   0.79641   0.00000  Uiso   1.00
H91    H     0.15321   0.65908   0.80378   0.00000  Uiso   1.00
C92    C     0.17380   0.91260   0.80456   0.00000  Uiso   1.00
Ba93   Ba    0.77566   0.26219   0.73344   0.00000  Uiso   1.00
O94    O     0.74292   0.58490   0.69035   0.00000  Uiso   1.00
O95    O     0.72316   0.36280   0.64493   0.00000  Uiso   1.00
O96    O     0.31385   0.94790   0.28270   0.00000  Uiso   1.00
O97    O     0.36937   0.16300   0.30793   0.00000  Uiso   1.00
O98    O     0.31772   0.42600   0.73571   0.00000  Uiso   1.00
O99    O     0.30730   0.50940   0.66475   0.00000  Uiso   1.00
O100   O     0.87857   0.33580   0.70230   0.00000  Uiso   1.00
H101   H     0.88771   0.25247   0.68680   0.00000  Uiso   1.00
H102   H     0.90419   0.34834   0.72478   0.00000  Uiso   1.00
N103   N     0.60699   0.50010   0.58374   0.00000  Uiso   1.00
N104   N     0.65955   0.55230   0.58145   0.00000  Uiso   1.00
N105   N     0.67896   0.50670   0.54357   0.00000  Uiso   1.00
N106   N     0.63732   0.42140   0.52000   0.00000  Uiso   1.00
N107   N     0.50136   0.10820   0.40055   0.00000  Uiso   1.00
N108   N     0.47761   0.02120   0.36514   0.00000  Uiso   1.00
N109   N     0.42743   0.97540   0.37454   0.00000  Uiso   1.00
N110   N     0.41547   0.02860   0.41443   0.00000  Uiso   1.00
N111   N     0.41755   0.28210   0.62282   0.00000  Uiso   1.00
N112   N     0.37054   0.24330   0.63915   0.00000  Uiso   1.00
N113   N     0.33400   0.15700   0.60990   0.00000  Uiso   1.00
N114   N     0.35620   0.15400   0.57170   0.00000  Uiso   1.00
C115   C     0.72211   0.51720   0.65398   0.00000  Uiso   1.00
C116   C     0.69396   0.63990   0.61817   0.00000  Uiso   1.00
H117   H     0.67017   0.71849   0.63202   0.00000  Uiso   1.00
H118   H     0.72310   0.70524   0.60621   0.00000  Uiso   1.00
C119   C     0.59419   0.41880   0.54490   0.00000  Uiso   1.00
C120   C     0.53922   0.33760   0.53077   0.00000  Uiso   1.00
C121   C     0.49890   0.33240   0.56046   0.00000  Uiso   1.00
H122   H     0.50696   0.38024   0.58897   0.00000  Uiso   1.00
C123   C     0.44630   0.25510   0.54720   0.00000  Uiso   1.00
C124   C     0.43468   0.18470   0.50472   0.00000  Uiso   1.00
H125   H     0.39965   0.13350   0.49598   0.00000  Uiso   1.00
C126   C     0.47441   0.18920   0.47494   0.00000  Uiso   1.00
C127   C     0.52710   0.26520   0.48837   0.00000  Uiso   1.00
H128   H     0.55422   0.26728   0.46877   0.00000  Uiso   1.00
C129   C     0.46334   0.11030   0.43040   0.00000  Uiso   1.00
C130   C     0.38600   0.88830   0.34168   0.00000  Uiso   1.00
H131   H     0.35893   0.82857   0.35742   0.00000  Uiso   1.00
H132   H     0.40546   0.80517   0.32551   0.00000  Uiso   1.00
C133   C     0.35450   0.01210   0.30817   0.00000  Uiso   1.00
C134   C     0.40580   0.24260   0.57969   0.00000  Uiso   1.00
C135   C     0.36320   0.26230   0.68608   0.00000  Uiso   1.00
H136   H     0.40040   0.27645   0.70359   0.00000  Uiso   1.00
H137   H     0.34679   0.15908   0.69622   0.00000  Uiso   1.00
C138   C     0.32620   0.41260   0.69544   0.00000  Uiso   1.00
Ba139  Ba    0.27566   0.76219   0.73344   0.00000  Uiso   1.00
O140   O     0.24292   0.08490   0.69035   0.00000  Uiso   1.00
O141   O     0.22316   0.86280   0.64493   0.00000  Uiso   1.00
O142   O     0.81385   0.44790   0.28270   0.00000  Uiso   1.00
O143   O     0.86937   0.66300   0.30793   0.00000  Uiso   1.00
O144   O     0.81772   0.92600   0.73571   0.00000  Uiso   1.00
O145   O     0.80730   0.00940   0.66475   0.00000  Uiso   1.00
O146   O     0.37857   0.83580   0.70230   0.00000  Uiso   1.00
H147   H     0.38771   0.75247   0.68680   0.00000  Uiso   1.00
H148   H     0.40419   0.84834   0.72478   0.00000  Uiso   1.00
N149   N     0.10699   0.00010   0.58374   0.00000  Uiso   1.00
N150   N     0.15955   0.05230   0.58145   0.00000  Uiso   1.00
N151   N     0.17896   0.00670   0.54357   0.00000  Uiso   1.00
N152   N     0.13732   0.92140   0.52000   0.00000  Uiso   1.00
N153   N     0.00136   0.60820   0.40055   0.00000  Uiso   1.00
N154   N     0.97761   0.52120   0.36514   0.00000  Uiso   1.00
N155   N     0.92743   0.47540   0.37454   0.00000  Uiso   1.00
N156   N     0.91547   0.52860   0.41443   0.00000  Uiso   1.00
N157   N     0.91755   0.78210   0.62282   0.00000  Uiso   1.00
N158   N     0.87054   0.74330   0.63915   0.00000  Uiso   1.00
N159   N     0.83400   0.65700   0.60990   0.00000  Uiso   1.00
N160   N     0.85620   0.65400   0.57170   0.00000  Uiso   1.00
C161   C     0.22211   0.01720   0.65398   0.00000  Uiso   1.00
C162   C     0.19396   0.13990   0.61817   0.00000  Uiso   1.00
H163   H     0.17017   0.21849   0.63202   0.00000  Uiso   1.00
H164   H     0.22310   0.20524   0.60621   0.00000  Uiso   1.00
C165   C     0.09419   0.91880   0.54490   0.00000  Uiso   1.00
C166   C     0.03922   0.83760   0.53077   0.00000  Uiso   1.00
C167   C     0.99890   0.83240   0.56046   0.00000  Uiso   1.00
H168   H     0.00696   0.88024   0.58897   0.00000  Uiso   1.00
C169   C     0.94630   0.75510   0.54720   0.00000  Uiso   1.00
C170   C     0.93468   0.68470   0.50472   0.00000  Uiso   1.00
H171   H     0.89965   0.63350   0.49598   0.00000  Uiso   1.00
C172   C     0.97441   0.68920   0.47494   0.00000  Uiso   1.00
C173   C     0.02710   0.76520   0.48837   0.00000  Uiso   1.00
H174   H     0.05422   0.76728   0.46877   0.00000  Uiso   1.00
C175   C     0.96334   0.61030   0.43040   0.00000  Uiso   1.00
C176   C     0.88600   0.38830   0.34168   0.00000  Uiso   1.00
H177   H     0.85893   0.32857   0.35742   0.00000  Uiso   1.00
H178   H     0.90546   0.30517   0.32551   0.00000  Uiso   1.00
C179   C     0.85450   0.51210   0.30817   0.00000  Uiso   1.00
C180   C     0.90580   0.74260   0.57969   0.00000  Uiso   1.00
C181   C     0.86320   0.76230   0.68608   0.00000  Uiso   1.00
H182   H     0.90040   0.77645   0.70359   0.00000  Uiso   1.00
H183   H     0.84679   0.65908   0.69622   0.00000  Uiso   1.00
C184   C     0.82620   0.91260   0.69544   0.00000  Uiso   1.00
Ba185  Ba    0.77566   0.73781   0.23344   0.00000  Uiso   1.00
O186   O     0.74292   0.41510   0.19035   0.00000  Uiso   1.00
O187   O     0.72316   0.63720   0.14493   0.00000  Uiso   1.00
O188   O     0.31385   0.05210   0.78270   0.00000  Uiso   1.00
O189   O     0.36937   0.83700   0.80793   0.00000  Uiso   1.00
O190   O     0.31772   0.57400   0.23571   0.00000  Uiso   1.00
O191   O     0.30730   0.49060   0.16475   0.00000  Uiso   1.00
O192   O     0.87857   0.66420   0.20230   0.00000  Uiso   1.00
H193   H     0.88771   0.74753   0.18680   0.00000  Uiso   1.00
H194   H     0.90419   0.65166   0.22478   0.00000  Uiso   1.00
N195   N     0.60699   0.49990   0.08374   0.00000  Uiso   1.00
N196   N     0.65955   0.44770   0.08145   0.00000  Uiso   1.00
N197   N     0.67896   0.49330   0.04357   0.00000  Uiso   1.00
N198   N     0.63732   0.57860   0.02000   0.00000  Uiso   1.00
N199   N     0.50136   0.89180   0.90055   0.00000  Uiso   1.00
N200   N     0.47761   0.97880   0.86514   0.00000  Uiso   1.00
N201   N     0.42743   0.02460   0.87454   0.00000  Uiso   1.00
N202   N     0.41547   0.97140   0.91443   0.00000  Uiso   1.00
N203   N     0.41755   0.71790   0.12282   0.00000  Uiso   1.00
N204   N     0.37054   0.75670   0.13915   0.00000  Uiso   1.00
N205   N     0.33400   0.84300   0.10990   0.00000  Uiso   1.00
N206   N     0.35620   0.84600   0.07170   0.00000  Uiso   1.00
C207   C     0.72211   0.48280   0.15398   0.00000  Uiso   1.00
C208   C     0.69396   0.36010   0.11817   0.00000  Uiso   1.00
H209   H     0.67017   0.28151   0.13202   0.00000  Uiso   1.00
H210   H     0.72310   0.29476   0.10621   0.00000  Uiso   1.00
C211   C     0.59419   0.58120   0.04490   0.00000  Uiso   1.00
C212   C     0.53922   0.66240   0.03077   0.00000  Uiso   1.00
C213   C     0.49890   0.66760   0.06046   0.00000  Uiso   1.00
H214   H     0.50696   0.61976   0.08897   0.00000  Uiso   1.00
C215   C     0.44630   0.74490   0.04720   0.00000  Uiso   1.00
C216   C     0.43468   0.81530   0.00472   0.00000  Uiso   1.00
H217   H     0.39965   0.86650   0.99598   0.00000  Uiso   1.00
C218   C     0.47441   0.81080   0.97494   0.00000  Uiso   1.00
C219   C     0.52710   0.73480   0.98837   0.00000  Uiso   1.00
H220   H     0.55422   0.73272   0.96877   0.00000  Uiso   1.00
C221   C     0.46334   0.88970   0.93040   0.00000  Uiso   1.00
C222   C     0.38600   0.11170   0.84168   0.00000  Uiso   1.00
H223   H     0.35893   0.17143   0.85742   0.00000  Uiso   1.00
H224   H     0.40546   0.19483   0.82551   0.00000  Uiso   1.00
C225   C     0.35450   0.98790   0.80817   0.00000  Uiso   1.00
C226   C     0.40580   0.75740   0.07969   0.00000  Uiso   1.00
C227   C     0.36320   0.73770   0.18608   0.00000  Uiso   1.00
H228   H     0.40040   0.72355   0.20359   0.00000  Uiso   1.00
H229   H     0.34679   0.84092   0.19622   0.00000  Uiso   1.00
C230   C     0.32620   0.58740   0.19544   0.00000  Uiso   1.00
Ba231  Ba    0.27566   0.23781   0.23344   0.00000  Uiso   1.00
O232   O     0.24292   0.91510   0.19035   0.00000  Uiso   1.00
O233   O     0.22316   0.13720   0.14493   0.00000  Uiso   1.00
O234   O     0.81385   0.55210   0.78270   0.00000  Uiso   1.00
O235   O     0.86937   0.33700   0.80793   0.00000  Uiso   1.00
O236   O     0.81772   0.07400   0.23571   0.00000  Uiso   1.00
O237   O     0.80730   0.99060   0.16475   0.00000  Uiso   1.00
O238   O     0.37857   0.16420   0.20230   0.00000  Uiso   1.00
H239   H     0.38771   0.24753   0.18680   0.00000  Uiso   1.00
H240   H     0.40419   0.15166   0.22478   0.00000  Uiso   1.00
N241   N     0.10699   0.99990   0.08374   0.00000  Uiso   1.00
N242   N     0.15955   0.94770   0.08145   0.00000  Uiso   1.00
N243   N     0.17896   0.99330   0.04357   0.00000  Uiso   1.00
N244   N     0.13732   0.07860   0.02000   0.00000  Uiso   1.00
N245   N     0.00136   0.39180   0.90055   0.00000  Uiso   1.00
N246   N     0.97761   0.47880   0.86514   0.00000  Uiso   1.00
N247   N     0.92743   0.52460   0.87454   0.00000  Uiso   1.00
N248   N     0.91547   0.47140   0.91443   0.00000  Uiso   1.00
N249   N     0.91755   0.21790   0.12282   0.00000  Uiso   1.00
N250   N     0.87054   0.25670   0.13915   0.00000  Uiso   1.00
N251   N     0.83400   0.34300   0.10990   0.00000  Uiso   1.00
N252   N     0.85620   0.34600   0.07170   0.00000  Uiso   1.00
C253   C     0.22211   0.98280   0.15398   0.00000  Uiso   1.00
C254   C     0.19396   0.86010   0.11817   0.00000  Uiso   1.00
H255   H     0.17017   0.78151   0.13202   0.00000  Uiso   1.00
H256   H     0.22310   0.79476   0.10621   0.00000  Uiso   1.00
C257   C     0.09419   0.08120   0.04490   0.00000  Uiso   1.00
C258   C     0.03922   0.16240   0.03077   0.00000  Uiso   1.00
C259   C     0.99890   0.16760   0.06046   0.00000  Uiso   1.00
H260   H     0.00696   0.11976   0.08897   0.00000  Uiso   1.00
C261   C     0.94630   0.24490   0.04720   0.00000  Uiso   1.00
C262   C     0.93468   0.31530   0.00472   0.00000  Uiso   1.00
H263   H     0.89965   0.36650   0.99598   0.00000  Uiso   1.00
C264   C     0.97441   0.31080   0.97494   0.00000  Uiso   1.00
C265   C     0.02710   0.23480   0.98837   0.00000  Uiso   1.00
H266   H     0.05422   0.23272   0.96877   0.00000  Uiso   1.00
C267   C     0.96334   0.38970   0.93040   0.00000  Uiso   1.00
C268   C     0.88600   0.61170   0.84168   0.00000  Uiso   1.00
H269   H     0.85893   0.67143   0.85742   0.00000  Uiso   1.00
H270   H     0.90546   0.69483   0.82551   0.00000  Uiso   1.00
C271   C     0.85450   0.48790   0.80817   0.00000  Uiso   1.00
C272   C     0.90580   0.25740   0.07969   0.00000  Uiso   1.00
C273   C     0.86320   0.23770   0.18608   0.00000  Uiso   1.00
H274   H     0.90040   0.22355   0.20359   0.00000  Uiso   1.00
H275   H     0.84679   0.34092   0.19622   0.00000  Uiso   1.00
C276   C     0.82620   0.08740   0.19544   0.00000  Uiso   1.00
Ba277  Ba    0.22434   0.73781   0.26656   0.00000  Uiso   1.00
O278   O     0.25708   0.41510   0.30965   0.00000  Uiso   1.00
O279   O     0.27684   0.63720   0.35507   0.00000  Uiso   1.00
O280   O     0.68615   0.05210   0.71730   0.00000  Uiso   1.00
O281   O     0.63063   0.83700   0.69207   0.00000  Uiso   1.00
O282   O     0.68228   0.57400   0.26429   0.00000  Uiso   1.00
O283   O     0.69270   0.49060   0.33525   0.00000  Uiso   1.00
O284   O     0.12143   0.66420   0.29770   0.00000  Uiso   1.00
H285   H     0.11229   0.74753   0.31320   0.00000  Uiso   1.00
H286   H     0.09581   0.65166   0.27522   0.00000  Uiso   1.00
N287   N     0.39301   0.49990   0.41626   0.00000  Uiso   1.00
N288   N     0.34045   0.44770   0.41855   0.00000  Uiso   1.00
N289   N     0.32104   0.49330   0.45643   0.00000  Uiso   1.00
N290   N     0.36268   0.57860   0.48000   0.00000  Uiso   1.00
N291   N     0.49864   0.89180   0.59945   0.00000  Uiso   1.00
N292   N     0.52239   0.97880   0.63486   0.00000  Uiso   1.00
N293   N     0.57257   0.02460   0.62546   0.00000  Uiso   1.00
N294   N     0.58453   0.97140   0.58557   0.00000  Uiso   1.00
N295   N     0.58245   0.71790   0.37718   0.00000  Uiso   1.00
N296   N     0.62946   0.75670   0.36085   0.00000  Uiso   1.00
N297   N     0.66600   0.84300   0.39010   0.00000  Uiso   1.00
N298   N     0.64380   0.84600   0.42830   0.00000  Uiso   1.00
C299   C     0.27789   0.48280   0.34602   0.00000  Uiso   1.00
C300   C     0.30604   0.36010   0.38183   0.00000  Uiso   1.00
H301   H     0.32983   0.28151   0.36798   0.00000  Uiso   1.00
H302   H     0.27690   0.29476   0.39379   0.00000  Uiso   1.00
C303   C     0.40581   0.58120   0.45510   0.00000  Uiso   1.00
C304   C     0.46078   0.66240   0.46923   0.00000  Uiso   1.00
C305   C     0.50110   0.66760   0.43954   0.00000  Uiso   1.00
H306   H     0.49304   0.61976   0.41103   0.00000  Uiso   1.00
C307   C     0.55370   0.74490   0.45280   0.00000  Uiso   1.00
C308   C     0.56532   0.81530   0.49528   0.00000  Uiso   1.00
H309   H     0.60035   0.86650   0.50402   0.00000  Uiso   1.00
C310   C     0.52559   0.81080   0.52506   0.00000  Uiso   1.00
C311   C     0.47290   0.73480   0.51163   0.00000  Uiso   1.00
H312   H     0.44578   0.73272   0.53123   0.00000  Uiso   1.00
C313   C     0.53666   0.88970   0.56960   0.00000  Uiso   1.00
C314   C     0.61400   0.11170   0.65832   0.00000  Uiso   1.00
H315   H     0.64107   0.17143   0.64258   0.00000  Uiso   1.00
H316   H     0.59454   0.19483   0.67449   0.00000  Uiso   1.00
C317   C     0.64550   0.98790   0.69183   0.00000  Uiso   1.00
C318   C     0.59420   0.75740   0.42031   0.00000  Uiso   1.00
C319   C     0.63680   0.73770   0.31392   0.00000  Uiso   1.00
H320   H     0.59960   0.72355   0.29641   0.00000  Uiso   1.00
H321   H     0.65321   0.84092   0.30378   0.00000  Uiso   1.00
C322   C     0.67380   0.58740   0.30456   0.00000  Uiso   1.00
Ba323  Ba    0.72434   0.23781   0.26656   0.00000  Uiso   1.00
O324   O     0.75708   0.91510   0.30965   0.00000  Uiso   1.00
O325   O     0.77684   0.13720   0.35507   0.00000  Uiso   1.00
O326   O     0.18615   0.55210   0.71730   0.00000  Uiso   1.00
O327   O     0.13063   0.33700   0.69207   0.00000  Uiso   1.00
O328   O     0.18228   0.07400   0.26429   0.00000  Uiso   1.00
O329   O     0.19270   0.99060   0.33525   0.00000  Uiso   1.00
O330   O     0.62143   0.16420   0.29770   0.00000  Uiso   1.00
H331   H     0.61229   0.24753   0.31320   0.00000  Uiso   1.00
H332   H     0.59581   0.15166   0.27522   0.00000  Uiso   1.00
N333   N     0.89301   0.99990   0.41626   0.00000  Uiso   1.00
N334   N     0.84045   0.94770   0.41855   0.00000  Uiso   1.00
N335   N     0.82104   0.99330   0.45643   0.00000  Uiso   1.00
N336   N     0.86268   0.07860   0.48000   0.00000  Uiso   1.00
N337   N     0.99864   0.39180   0.59945   0.00000  Uiso   1.00
N338   N     0.02239   0.47880   0.63486   0.00000  Uiso   1.00
N339   N     0.07257   0.52460   0.62546   0.00000  Uiso   1.00
N340   N     0.08453   0.47140   0.58557   0.00000  Uiso   1.00
N341   N     0.08245   0.21790   0.37718   0.00000  Uiso   1.00
N342   N     0.12946   0.25670   0.36085   0.00000  Uiso   1.00
N343   N     0.16600   0.34300   0.39010   0.00000  Uiso   1.00
N344   N     0.14380   0.34600   0.42830   0.00000  Uiso   1.00
C345   C     0.77789   0.98280   0.34602   0.00000  Uiso   1.00
C346   C     0.80604   0.86010   0.38183   0.00000  Uiso   1.00
H347   H     0.82983   0.78151   0.36798   0.00000  Uiso   1.00
H348   H     0.77690   0.79476   0.39379   0.00000  Uiso   1.00
C349   C     0.90581   0.08120   0.45510   0.00000  Uiso   1.00
C350   C     0.96078   0.16240   0.46923   0.00000  Uiso   1.00
C351   C     0.00110   0.16760   0.43954   0.00000  Uiso   1.00
H352   H     0.99304   0.11976   0.41103   0.00000  Uiso   1.00
C353   C     0.05370   0.24490   0.45280   0.00000  Uiso   1.00
C354   C     0.06532   0.31530   0.49528   0.00000  Uiso   1.00
H355   H     0.10035   0.36650   0.50402   0.00000  Uiso   1.00
C356   C     0.02559   0.31080   0.52506   0.00000  Uiso   1.00
C357   C     0.97290   0.23480   0.51163   0.00000  Uiso   1.00
H358   H     0.94578   0.23272   0.53123   0.00000  Uiso   1.00
C359   C     0.03666   0.38970   0.56960   0.00000  Uiso   1.00
C360   C     0.11400   0.61170   0.65832   0.00000  Uiso   1.00
H361   H     0.14107   0.67143   0.64258   0.00000  Uiso   1.00
H362   H     0.09454   0.69483   0.67449   0.00000  Uiso   1.00
C363   C     0.14550   0.48790   0.69183   0.00000  Uiso   1.00
C364   C     0.09420   0.25740   0.42031   0.00000  Uiso   1.00
C365   C     0.13680   0.23770   0.31392   0.00000  Uiso   1.00
H366   H     0.09960   0.22355   0.29641   0.00000  Uiso   1.00
H367   H     0.15321   0.34092   0.30378   0.00000  Uiso   1.00
C368   C     0.17380   0.08740   0.30456   0.00000  Uiso   1.00
loop_
_geom_bond_atom_site_label_1
_geom_bond_atom_site_label_2
_geom_bond_distance
_geom_bond_site_symmetry_2
_ccdc_geom_bond_type
Ba1    O2      2.911   .     S
Ba1    O3      2.885   .     S
Ba1    O8      2.796   .     S
Ba1    O140    2.766   .     S
Ba1    O188    2.688   .     S
Ba1    O326    2.804   .     S
Ba1    O327    2.989   .     S
Ba1    O98     2.831   .     S
Ba1    O52     2.831   1_545 S
Ba1    O53     3.034   .     S
O2     C23     1.253   .     S
O2     Ba139   2.766   .     S
O3     C23     1.248   .     S
O4     C41     1.253   1_565 S
O4     Ba185   2.688   .     S
O4     Ba323   2.804   1_565 S
O5     C41     1.242   .     S
O5     Ba323   2.989   .     S
O6     C46     1.256   .     S
O6     Ba93    2.831   .     S
O6     Ba47    2.831   .     S
O7     C46     1.232   .     S
O7     Ba47    3.034   .     S
O8     H9      0.850   .     S
O8     H10     0.850   .     S
N11    N12     1.326   .     S
N11    C27     1.328   .     S
N12    N13     1.333   .     S
N12    C24     1.453   .     S
N13    N14     1.319   .     S
N14    C27     1.349   .     S
N15    N16     1.324   .     S
N15    C37     1.357   .     S
N16    N17     1.313   1_545 S
N17    N16     1.313   1_565 S
N17    N18     1.334   1_565 S
N17    C38     1.465   .     S
N18    N17     1.334   1_545 S
N18    C37     1.338   .     S
N19    N20     1.316   .     S
N19    C42     1.322   .     S
N20    N21     1.333   .     S
N20    C43     1.449   .     S
N21    N22     1.325   .     S
N22    C42     1.363   .     S
C23    C24     1.530   .     S
C24    H25     0.970   .     S
C24    H26     0.971   .     S
C27    C28     1.465   .     S
C28    C29     1.395   .     S
C28    C35     1.387   1_556 S
C29    H30     0.930   .     S
C29    C31     1.399   .     S
C31    C32     1.382   .     S
C31    C42     1.464   .     S
C32    H33     0.930   1_556 S
C32    C34     1.386   1_556 S
H33    C32     0.930   1_554 S
C34    C32     1.386   1_554 S
C34    C35     1.397   .     S
C34    C37     1.464   .     S
C35    C28     1.387   1_554 S
C35    H36     0.930   .     S
C38    H39     0.971   .     S
C38    H40     0.970   .     S
C38    C41     1.522   1_565 S
C41    O4      1.253   1_545 S
C41    C38     1.522   1_545 S
C43    H44     0.971   .     S
C43    H45     0.969   .     S
C43    C46     1.525   .     S
Ba47   O48     2.911   1_565 S
Ba47   O49     2.885   .     S
Ba47   O54     2.796   .     S
Ba47   O94     2.766   .     S
Ba47   O234    2.688   .     S
Ba47   O280    2.804   1_565 S
Ba47   O281    2.989   .     S
Ba47   O144    2.831   .     S
O48    Ba47    2.911   1_545 S
O48    C69     1.253   .     S
O48    Ba93    2.766   .     S
O49    C69     1.248   1_565 S
O50    C87     1.253   .     S
O50    Ba231   2.688   .     S
O50    Ba277   2.804   .     S
O51    C87     1.242   .     S
O51    Ba277   2.989   .     S
O52    C92     1.256   .     S
O52    Ba139   2.831   .     S
O52    Ba1     2.831   1_565 S
O53    C92     1.232   1_545 S
O54    H55     0.850   .     S
O54    H56     0.850   .     S
N57    N58     1.326   .     S
N57    C73     1.328   1_545 S
N58    N59     1.333   .     S
N58    C70     1.453   .     S
N59    N60     1.319   1_545 S
N60    N59     1.319   1_565 S
N60    C73     1.349   .     S
N61    N62     1.324   1_655 S
N61    C83     1.357   1_655 S
N62    N61     1.324   1_455 S
N62    N63     1.313   .     S
N63    N64     1.334   .     S
N63    C84     1.465   .     S
N64    C83     1.338   .     S
N65    N66     1.316   .     S
N65    C88     1.322   .     S
N66    N67     1.333   .     S
N66    C89     1.449   .     S
N67    N68     1.325   .     S
N68    C88     1.363   .     S
C69    O49     1.248   1_545 S
C69    C70     1.530   .     S
C70    H71     0.970   .     S
C70    H72     0.971   .     S
C73    N57     1.328   1_565 S
C73    C74     1.465   .     S
C74    C75     1.395   1_655 S
C74    C81     1.387   1_556 S
C75    C74     1.395   1_455 S
C75    H76     0.930   1_455 S
C75    C77     1.399   .     S
H76    C75     0.930   1_655 S
C77    C78     1.382   .     S
C77    C88     1.464   .     S
C78    H79     0.930   1_556 S
C78    C80     1.386   1_556 S
H79    C78     0.930   1_554 S
C80    C78     1.386   1_554 S
C80    C81     1.397   1_455 S
C80    C83     1.464   .     S
C81    C74     1.387   1_554 S
C81    H82     0.930   .     S
C81    C80     1.397   1_655 S
C83    N61     1.357   1_455 S
C84    H85     0.971   .     S
C84    H86     0.970   .     S
C84    C87     1.522   .     S
C89    H90     0.971   .     S
C89    H91     0.969   .     S
C89    C92     1.525   .     S
C92    O53     1.232   1_565 S
Ba93   O94     2.911   .     S
Ba93   O95     2.885   .     S
Ba93   O100    2.796   .     S
Ba93   O280    2.688   .     S
Ba93   O234    2.804   .     S
Ba93   O235    2.989   .     S
Ba93   O144    2.831   1_545 S
Ba93   O145    3.034   .     S
O94    C115    1.253   .     S
O95    C115    1.248   .     S
O96    C133    1.253   1_565 S
O96    Ba277   2.688   .     S
O96    Ba231   2.804   1_565 S
O97    C133    1.242   .     S
O97    Ba231   2.989   .     S
O98    C138    1.256   .     S
O98    Ba139   2.831   .     S
O99    C138    1.232   .     S
O99    Ba139   3.034   .     S
O100   H101    0.850   .     S
O100   H102    0.850   .     S
N103   N104    1.326   .     S
N103   C119    1.328   .     S
N104   N105    1.333   .     S
N104   C116    1.453   .     S
N105   N106    1.319   .     S
N106   C119    1.349   .     S
N107   N108    1.324   .     S
N107   C129    1.357   .     S
N108   N109    1.313   1_545 S
N109   N108    1.313   1_565 S
N109   N110    1.334   1_565 S
N109   C130    1.465   .     S
N110   N109    1.334   1_545 S
N110   C129    1.338   .     S
N111   N112    1.316   .     S
N111   C134    1.322   .     S
N112   N113    1.333   .     S
N112   C135    1.449   .     S
N113   N114    1.325   .     S
N114   C134    1.363   .     S
C115   C116    1.530   .     S
C116   H117    0.970   .     S
C116   H118    0.971   .     S
C119   C120    1.465   .     S
C120   C121    1.395   .     S
C120   C127    1.387   .     S
C121   H122    0.930   .     S
C121   C123    1.399   .     S
C123   C124    1.382   .     S
C123   C134    1.464   .     S
C124   H125    0.930   .     S
C124   C126    1.386   .     S
C126   C127    1.397   .     S
C126   C129    1.464   .     S
C127   H128    0.930   .     S
C130   H131    0.971   .     S
C130   H132    0.970   .     S
C130   C133    1.522   1_565 S
C133   O96     1.253   1_545 S
C133   C130    1.522   1_545 S
C135   H136    0.971   .     S
C135   H137    0.969   .     S
C135   C138    1.525   .     S
Ba139  O140    2.911   1_565 S
Ba139  O141    2.885   .     S
Ba139  O146    2.796   .     S
Ba139  O326    2.688   .     S
Ba139  O188    2.804   1_565 S
Ba139  O189    2.989   .     S
O140   Ba139   2.911   1_545 S
O140   C161    1.253   .     S
O141   C161    1.248   1_565 S
O142   C179    1.253   .     S
O142   Ba323   2.688   .     S
O142   Ba185   2.804   .     S
O143   C179    1.242   .     S
O143   Ba185   2.989   .     S
O144   C184    1.256   .     S
O144   Ba93    2.831   1_565 S
O145   C184    1.232   1_545 S
O146   H147    0.850   .     S
O146   H148    0.850   .     S
N149   N150    1.326   .     S
N149   C165    1.328   1_545 S
N150   N151    1.333   .     S
N150   C162    1.453   .     S
N151   N152    1.319   1_545 S
N152   N151    1.319   1_565 S
N152   C165    1.349   .     S
N153   N154    1.324   1_455 S
N153   C175    1.357   1_455 S
N154   N153    1.324   1_655 S
N154   N155    1.313   .     S
N155   N156    1.334   .     S
N155   C176    1.465   .     S
N156   C175    1.338   .     S
N157   N158    1.316   .     S
N157   C180    1.322   .     S
N158   N159    1.333   .     S
N158   C181    1.449   .     S
N159   N160    1.325   .     S
N160   C180    1.363   .     S
C161   O141    1.248   1_545 S
C161   C162    1.530   .     S
C162   H163    0.970   .     S
C162   H164    0.971   .     S
C165   N149    1.328   1_565 S
C165   C166    1.465   .     S
C166   C167    1.395   1_455 S
C166   C173    1.387   .     S
C167   C166    1.395   1_655 S
C167   H168    0.930   1_655 S
C167   C169    1.399   .     S
H168   C167    0.930   1_455 S
C169   C170    1.382   .     S
C169   C180    1.464   .     S
C170   H171    0.930   .     S
C170   C172    1.386   .     S
C172   C173    1.397   1_655 S
C172   C175    1.464   .     S
C173   H174    0.930   .     S
C173   C172    1.397   1_455 S
C175   N153    1.357   1_655 S
C176   H177    0.971   .     S
C176   H178    0.970   .     S
C176   C179    1.522   .     S
C181   H182    0.971   .     S
C181   H183    0.969   .     S
C181   C184    1.525   .     S
C184   O145    1.232   1_565 S
Ba185  O186    2.911   .     S
Ba185  O187    2.885   .     S
Ba185  O192    2.796   .     S
Ba185  O324    2.766   .     S
Ba185  O282    2.831   .     S
Ba185  O236    2.831   1_565 S
Ba185  O237    3.034   .     S
O186   C207    1.253   .     S
O186   Ba323   2.766   .     S
O187   C207    1.248   .     S
O188   C225    1.253   1_545 S
O188   Ba139   2.804   1_545 S
O189   C225    1.242   .     S
O190   C230    1.256   .     S
O190   Ba277   2.831   .     S
O190   Ba231   2.831   .     S
O191   C230    1.232   .     S
O191   Ba231   3.034   .     S
O192   H193    0.850   .     S
O192   H194    0.850   .     S
N195   N196    1.326   .     S
N195   C211    1.328   .     S
N196   N197    1.333   .     S
N196   C208    1.453   .     S
N197   N198    1.319   .     S
N198   C211    1.349   .     S
N199   N200    1.324   .     S
N199   C221    1.357   .     S
N200   N201    1.313   1_565 S
N201   N200    1.313   1_545 S
N201   N202    1.334   1_545 S
N201   C222    1.465   .     S
N202   N201    1.334   1_565 S
N202   C221    1.338   .     S
N203   N204    1.316   .     S
N203   C226    1.322   .     S
N204   N205    1.333   .     S
N204   C227    1.449   .     S
N205   N206    1.325   .     S
N206   C226    1.363   .     S
C207   C208    1.530   .     S
C208   H209    0.970   .     S
C208   H210    0.971   .     S
C211   C212    1.465   .     S
C212   C213    1.395   .     S
C212   C219    1.387   1_554 S
C213   H214    0.930   .     S
C213   C215    1.399   .     S
C215   C216    1.382   .     S
C215   C226    1.464   .     S
C216   H217    0.930   1_554 S
C216   C218    1.386   1_554 S
H217   C216    0.930   1_556 S
C218   C216    1.386   1_556 S
C218   C219    1.397   .     S
C218   C221    1.464   .     S
C219   C212    1.387   1_556 S
C219   H220    0.930   .     S
C222   H223    0.971   .     S
C222   H224    0.970   .     S
C222   C225    1.522   1_545 S
C225   O188    1.253   1_565 S
C225   C222    1.522   1_565 S
C227   H228    0.971   .     S
C227   H229    0.969   .     S
C227   C230    1.525   .     S
Ba231  O232    2.911   1_545 S
Ba231  O233    2.885   .     S
Ba231  O238    2.796   .     S
Ba231  O278    2.766   .     S
Ba231  O96     2.804   1_545 S
Ba231  O328    2.831   .     S
O232   Ba231   2.911   1_565 S
O232   C253    1.253   .     S
O232   Ba277   2.766   .     S
O233   C253    1.248   1_545 S
O234   C271    1.253   .     S
O235   C271    1.242   .     S
O236   C276    1.256   .     S
O236   Ba323   2.831   .     S
O236   Ba185   2.831   1_545 S
O237   C276    1.232   1_565 S
O238   H239    0.850   .     S
O238   H240    0.850   .     S
N241   N242    1.326   .     S
N241   C257    1.328   1_565 S
N242   N243    1.333   .     S
N242   C254    1.453   .     S
N243   N244    1.319   1_565 S
N244   N243    1.319   1_545 S
N244   C257    1.349   .     S
N245   N246    1.324   1_455 S
N245   C267    1.357   1_455 S
N246   N245    1.324   1_655 S
N246   N247    1.313   .     S
N247   N248    1.334   .     S
N247   C268    1.465   .     S
N248   C267    1.338   .     S
N249   N250    1.316   .     S
N249   C272    1.322   .     S
N250   N251    1.333   .     S
N250   C273    1.449   .     S
N251   N252    1.325   .     S
N252   C272    1.363   .     S
C253   O233    1.248   1_565 S
C253   C254    1.530   .     S
C254   H255    0.970   .     S
C254   H256    0.971   .     S
C257   N241    1.328   1_545 S
C257   C258    1.465   .     S
C258   C259    1.395   1_455 S
C258   C265    1.387   1_554 S
C259   C258    1.395   1_655 S
C259   H260    0.930   1_655 S
C259   C261    1.399   .     S
H260   C259    0.930   1_455 S
C261   C262    1.382   .     S
C261   C272    1.464   .     S
C262   H263    0.930   1_554 S
C262   C264    1.386   1_554 S
H263   C262    0.930   1_556 S
C264   C262    1.386   1_556 S
C264   C265    1.397   1_655 S
C264   C267    1.464   .     S
C265   C258    1.387   1_556 S
C265   H266    0.930   .     S
C265   C264    1.397   1_455 S
C267   N245    1.357   1_655 S
C268   H269    0.971   .     S
C268   H270    0.970   .     S
C268   C271    1.522   .     S
C273   H274    0.971   .     S
C273   H275    0.969   .     S
C273   C276    1.525   .     S
C276   O237    1.232   1_545 S
Ba277  O278    2.911   .     S
Ba277  O279    2.885   .     S
Ba277  O284    2.796   .     S
Ba277  O328    2.831   1_565 S
Ba277  O329    3.034   .     S
O278   C299    1.253   .     S
O279   C299    1.248   .     S
O280   C317    1.253   1_545 S
O280   Ba47    2.804   1_545 S
O281   C317    1.242   .     S
O282   C322    1.256   .     S
O282   Ba323   2.831   .     S
O283   C322    1.232   .     S
O283   Ba323   3.034   .     S
O284   H285    0.850   .     S
O284   H286    0.850   .     S
N287   N288    1.326   .     S
N287   C303    1.328   .     S
N288   N289    1.333   .     S
N288   C300    1.453   .     S
N289   N290    1.319   .     S
N290   C303    1.349   .     S
N291   N292    1.324   .     S
N291   C313    1.357   .     S
N292   N293    1.313   1_565 S
N293   N292    1.313   1_545 S
N293   N294    1.334   1_545 S
N293   C314    1.465   .     S
N294   N293    1.334   1_565 S
N294   C313    1.338   .     S
N295   N296    1.316   .     S
N295   C318    1.322   .     S
N296   N297    1.333   .     S
N296   C319    1.449   .     S
N297   N298    1.325   .     S
N298   C318    1.363   .     S
C299   C300    1.530   .     S
C300   H301    0.970   .     S
C300   H302    0.971   .     S
C303   C304    1.465   .     S
C304   C305    1.395   .     S
C304   C311    1.387   .     S
C305   H306    0.930   .     S
C305   C307    1.399   .     S
C307   C308    1.382   .     S
C307   C318    1.464   .     S
C308   H309    0.930   .     S
C308   C310    1.386   .     S
C310   C311    1.397   .     S
C310   C313    1.464   .     S
C311   H312    0.930   .     S
C314   H315    0.971   .     S
C314   H316    0.970   .     S
C314   C317    1.522   1_545 S
C317   O280    1.253   1_565 S
C317   C314    1.522   1_565 S
C319   H320    0.971   .     S
C319   H321    0.969   .     S
C319   C322    1.525   .     S
Ba323  O324    2.911   1_545 S
Ba323  O325    2.885   .     S
Ba323  O330    2.796   .     S
Ba323  O4      2.804   1_545 S
O324   Ba323   2.911   1_565 S
O324   C345    1.253   .     S
O325   C345    1.248   1_545 S
O326   C363    1.253   .     S
O327   C363    1.242   .     S
O328   C368    1.256   .     S
O328   Ba277   2.831   1_545 S
O329   C368    1.232   1_565 S
O330   H331    0.850   .     S
O330   H332    0.850   .     S
N333   N334    1.326   .     S
N333   C349    1.328   1_565 S
N334   N335    1.333   .     S
N334   C346    1.453   .     S
N335   N336    1.319   1_565 S
N336   N335    1.319   1_545 S
N336   C349    1.349   .     S
N337   N338    1.324   1_655 S
N337   C359    1.357   1_655 S
N338   N337    1.324   1_455 S
N338   N339    1.313   .     S
N339   N340    1.334   .     S
N339   C360    1.465   .     S
N340   C359    1.338   .     S
N341   N342    1.316   .     S
N341   C364    1.322   .     S
N342   N343    1.333   .     S
N342   C365    1.449   .     S
N343   N344    1.325   .     S
N344   C364    1.363   .     S
C345   O325    1.248   1_565 S
C345   C346    1.530   .     S
C346   H347    0.970   .     S
C346   H348    0.971   .     S
C349   N333    1.328   1_545 S
C349   C350    1.465   .     S
C350   C351    1.395   1_655 S
C350   C357    1.387   .     S
C351   C350    1.395   1_455 S
C351   H352    0.930   1_455 S
C351   C353    1.399   .     S
H352   C351    0.930   1_655 S
C353   C354    1.382   .     S
C353   C364    1.464   .     S
C354   H355    0.930   .     S
C354   C356    1.386   .     S
C356   C357    1.397   1_455 S
C356   C359    1.464   .     S
C357   H358    0.930   .     S
C357   C356    1.397   1_655 S
C359   N337    1.357   1_455 S
C360   H361    0.971   .     S
C360   H362    0.970   .     S
C360   C363    1.522   .     S
C365   H366    0.971   .     S
C365   H367    0.969   .     S
C365   C368    1.525   .     S
C368   O329    1.232   1_545 S
