data_QEPNOR_FSR
_audit_creation_date              2024-06-11
_audit_creation_method            'Materials Studio'
_symmetry_space_group_name_H-M    'P1'
_symmetry_Int_Tables_number       1
_symmetry_cell_setting            triclinic
loop_
_symmetry_equiv_pos_as_xyz
  x,y,z
_cell_length_a                    16.7950
_cell_length_b                    16.7950
_cell_length_c                    17.5814
_cell_angle_alpha                 90.0000
_cell_angle_beta                  90.0000
_cell_angle_gamma                 90.0000
loop_
_atom_site_label
_atom_site_type_symbol
_atom_site_fract_x
_atom_site_fract_y
_atom_site_fract_z
_atom_site_U_iso_or_equiv
_atom_site_adp_type
_atom_site_occupancy
N1     N     0.91014   0.49433   0.58175   0.00000  Uiso   1.00
H2     H     0.88070   0.45280   0.58720   0.00000  Uiso   1.00
N3     N     0.94666   0.61709   0.55187   0.00000  Uiso   1.00
O4     O     0.99640   0.36650   0.63430   0.00000  Uiso   1.00
O5     O     0.10550   0.44162   0.64938   0.00000  Uiso   1.00
O6     O     0.14762   0.58034   0.61965   0.00000  Uiso   1.00
H7     H     0.13400   0.53480   0.63030   0.00000  Uiso   1.00
O8     O     0.09600   0.68570   0.56481   0.00000  Uiso   1.00
C9     C     0.03403   0.43050   0.63009   0.00000  Uiso   1.00
C10    C     0.98932   0.49963   0.59893   0.00000  Uiso   1.00
C11    C     0.01127   0.57617   0.58067   0.00000  Uiso   1.00
C12    C     0.08864   0.61740   0.58776   0.00000  Uiso   1.00
C13    C     0.88587   0.56616   0.55453   0.00000  Uiso   1.00
C14    C     0.80294   0.58489   0.53476   0.00000  Uiso   1.00
C15    C     0.75044   0.52654   0.51006   0.00000  Uiso   1.00
H16    H     0.76790   0.47440   0.50340   0.00000  Uiso   1.00
C17    C     0.67165   0.54650   0.49535   0.00000  Uiso   1.00
H18    H     0.63680   0.50730   0.47850   0.00000  Uiso   1.00
C19    C     0.64367   0.62385   0.50518   0.00000  Uiso   1.00
C20    C     0.69608   0.68260   0.53025   0.00000  Uiso   1.00
C21    C     0.77579   0.66275   0.54419   0.00000  Uiso   1.00
H22    H     0.81110   0.70210   0.56000   0.00000  Uiso   1.00
C23    C     0.55719   0.64260   0.48890   0.00000  Uiso   1.00
H24    H     0.53050   0.59510   0.47240   0.00000  Uiso   1.00
H25    H     0.55400   0.68230   0.44970   0.00000  Uiso   1.00
H26    H     0.53220   0.66230   0.53430   0.00000  Uiso   1.00
C27    C     0.66920   0.76670   0.54490   0.00000  Uiso   1.00
H28    H     0.61360   0.77150   0.53300   0.00000  Uiso   1.00
H29    H     0.69930   0.80260   0.51350   0.00000  Uiso   1.00
H30    H     0.67760   0.77970   0.59740   0.00000  Uiso   1.00
N31    N     0.41014   0.99433   0.08175   0.00000  Uiso   1.00
H32    H     0.38070   0.95280   0.08720   0.00000  Uiso   1.00
N33    N     0.44666   0.11709   0.05187   0.00000  Uiso   1.00
O34    O     0.49640   0.86650   0.13430   0.00000  Uiso   1.00
O35    O     0.60550   0.94162   0.14938   0.00000  Uiso   1.00
O36    O     0.64762   0.08034   0.11965   0.00000  Uiso   1.00
H37    H     0.63400   0.03480   0.13030   0.00000  Uiso   1.00
O38    O     0.59600   0.18570   0.06481   0.00000  Uiso   1.00
C39    C     0.53403   0.93050   0.13009   0.00000  Uiso   1.00
C40    C     0.48932   0.99963   0.09893   0.00000  Uiso   1.00
C41    C     0.51127   0.07617   0.08067   0.00000  Uiso   1.00
C42    C     0.58864   0.11740   0.08776   0.00000  Uiso   1.00
C43    C     0.38587   0.06616   0.05453   0.00000  Uiso   1.00
C44    C     0.30294   0.08489   0.03476   0.00000  Uiso   1.00
C45    C     0.25044   0.02654   0.01006   0.00000  Uiso   1.00
H46    H     0.26790   0.97440   0.00340   0.00000  Uiso   1.00
C47    C     0.17165   0.04650   0.99535   0.00000  Uiso   1.00
H48    H     0.13680   0.00730   0.97850   0.00000  Uiso   1.00
C49    C     0.14367   0.12385   0.00518   0.00000  Uiso   1.00
C50    C     0.19608   0.18260   0.03025   0.00000  Uiso   1.00
C51    C     0.27579   0.16275   0.04419   0.00000  Uiso   1.00
H52    H     0.31110   0.20210   0.06000   0.00000  Uiso   1.00
C53    C     0.05719   0.14260   0.98890   0.00000  Uiso   1.00
H54    H     0.03050   0.09510   0.97240   0.00000  Uiso   1.00
H55    H     0.05400   0.18230   0.94970   0.00000  Uiso   1.00
H56    H     0.03220   0.16230   0.03430   0.00000  Uiso   1.00
C57    C     0.16920   0.26670   0.04490   0.00000  Uiso   1.00
H58    H     0.11360   0.27150   0.03300   0.00000  Uiso   1.00
H59    H     0.19930   0.30260   0.01350   0.00000  Uiso   1.00
H60    H     0.17760   0.27970   0.09740   0.00000  Uiso   1.00
N61    N     0.58986   0.50567   0.08175   0.00000  Uiso   1.00
H62    H     0.61930   0.54720   0.08720   0.00000  Uiso   1.00
N63    N     0.55334   0.38291   0.05187   0.00000  Uiso   1.00
O64    O     0.50360   0.63350   0.13430   0.00000  Uiso   1.00
O65    O     0.39450   0.55838   0.14938   0.00000  Uiso   1.00
O66    O     0.35238   0.41966   0.11965   0.00000  Uiso   1.00
H67    H     0.36600   0.46520   0.13030   0.00000  Uiso   1.00
O68    O     0.40400   0.31430   0.06481   0.00000  Uiso   1.00
C69    C     0.46597   0.56950   0.13009   0.00000  Uiso   1.00
C70    C     0.51068   0.50037   0.09893   0.00000  Uiso   1.00
C71    C     0.48873   0.42383   0.08067   0.00000  Uiso   1.00
C72    C     0.41136   0.38260   0.08776   0.00000  Uiso   1.00
C73    C     0.61413   0.43384   0.05453   0.00000  Uiso   1.00
C74    C     0.69706   0.41511   0.03476   0.00000  Uiso   1.00
C75    C     0.74956   0.47346   0.01006   0.00000  Uiso   1.00
H76    H     0.73210   0.52560   0.00340   0.00000  Uiso   1.00
C77    C     0.82835   0.45350   0.99535   0.00000  Uiso   1.00
H78    H     0.86320   0.49270   0.97850   0.00000  Uiso   1.00
C79    C     0.85633   0.37615   0.00518   0.00000  Uiso   1.00
C80    C     0.80392   0.31740   0.03025   0.00000  Uiso   1.00
C81    C     0.72421   0.33725   0.04419   0.00000  Uiso   1.00
H82    H     0.68890   0.29790   0.06000   0.00000  Uiso   1.00
C83    C     0.94281   0.35740   0.98890   0.00000  Uiso   1.00
H84    H     0.96950   0.40490   0.97240   0.00000  Uiso   1.00
H85    H     0.94600   0.31770   0.94970   0.00000  Uiso   1.00
H86    H     0.96780   0.33770   0.03430   0.00000  Uiso   1.00
C87    C     0.83080   0.23330   0.04490   0.00000  Uiso   1.00
H88    H     0.88640   0.22850   0.03300   0.00000  Uiso   1.00
H89    H     0.80070   0.19740   0.01350   0.00000  Uiso   1.00
H90    H     0.82240   0.22030   0.09740   0.00000  Uiso   1.00
N91    N     0.08986   0.00567   0.58175   0.00000  Uiso   1.00
H92    H     0.11930   0.04720   0.58720   0.00000  Uiso   1.00
N93    N     0.05334   0.88291   0.55187   0.00000  Uiso   1.00
O94    O     0.00360   0.13350   0.63430   0.00000  Uiso   1.00
O95    O     0.89450   0.05838   0.64938   0.00000  Uiso   1.00
O96    O     0.85238   0.91966   0.61965   0.00000  Uiso   1.00
H97    H     0.86600   0.96520   0.63030   0.00000  Uiso   1.00
O98    O     0.90400   0.81430   0.56481   0.00000  Uiso   1.00
C99    C     0.96597   0.06950   0.63009   0.00000  Uiso   1.00
C100   C     0.01068   0.00037   0.59893   0.00000  Uiso   1.00
C101   C     0.98873   0.92383   0.58067   0.00000  Uiso   1.00
C102   C     0.91136   0.88260   0.58776   0.00000  Uiso   1.00
C103   C     0.11413   0.93384   0.55453   0.00000  Uiso   1.00
C104   C     0.19706   0.91511   0.53476   0.00000  Uiso   1.00
C105   C     0.24956   0.97346   0.51006   0.00000  Uiso   1.00
H106   H     0.23210   0.02560   0.50340   0.00000  Uiso   1.00
C107   C     0.32835   0.95350   0.49535   0.00000  Uiso   1.00
H108   H     0.36320   0.99270   0.47850   0.00000  Uiso   1.00
C109   C     0.35633   0.87615   0.50518   0.00000  Uiso   1.00
C110   C     0.30392   0.81740   0.53025   0.00000  Uiso   1.00
C111   C     0.22421   0.83725   0.54419   0.00000  Uiso   1.00
H112   H     0.18890   0.79790   0.56000   0.00000  Uiso   1.00
C113   C     0.44281   0.85740   0.48890   0.00000  Uiso   1.00
H114   H     0.46950   0.90490   0.47240   0.00000  Uiso   1.00
H115   H     0.44600   0.81770   0.44970   0.00000  Uiso   1.00
H116   H     0.46780   0.83770   0.53430   0.00000  Uiso   1.00
C117   C     0.33080   0.73330   0.54490   0.00000  Uiso   1.00
H118   H     0.38640   0.72850   0.53300   0.00000  Uiso   1.00
H119   H     0.30070   0.69740   0.51350   0.00000  Uiso   1.00
H120   H     0.32240   0.72030   0.59740   0.00000  Uiso   1.00
N121   N     0.25567   0.16014   0.83175   0.00000  Uiso   1.00
H122   H     0.29720   0.13070   0.83720   0.00000  Uiso   1.00
N123   N     0.13291   0.19666   0.80187   0.00000  Uiso   1.00
O124   O     0.38350   0.24640   0.88430   0.00000  Uiso   1.00
O125   O     0.30838   0.35550   0.89938   0.00000  Uiso   1.00
O126   O     0.16966   0.39762   0.86965   0.00000  Uiso   1.00
H127   H     0.21520   0.38400   0.88030   0.00000  Uiso   1.00
O128   O     0.06430   0.34600   0.81481   0.00000  Uiso   1.00
C129   C     0.31950   0.28403   0.88009   0.00000  Uiso   1.00
C130   C     0.25037   0.23932   0.84893   0.00000  Uiso   1.00
C131   C     0.17383   0.26127   0.83067   0.00000  Uiso   1.00
C132   C     0.13260   0.33864   0.83776   0.00000  Uiso   1.00
C133   C     0.18384   0.13587   0.80453   0.00000  Uiso   1.00
C134   C     0.16511   0.05294   0.78476   0.00000  Uiso   1.00
C135   C     0.22346   0.00044   0.76006   0.00000  Uiso   1.00
H136   H     0.27560   0.01790   0.75340   0.00000  Uiso   1.00
C137   C     0.20350   0.92165   0.74535   0.00000  Uiso   1.00
H138   H     0.24270   0.88680   0.72850   0.00000  Uiso   1.00
C139   C     0.12615   0.89367   0.75518   0.00000  Uiso   1.00
C140   C     0.06740   0.94608   0.78025   0.00000  Uiso   1.00
C141   C     0.08725   0.02579   0.79419   0.00000  Uiso   1.00
H142   H     0.04790   0.06110   0.81000   0.00000  Uiso   1.00
C143   C     0.10740   0.80719   0.73890   0.00000  Uiso   1.00
H144   H     0.15490   0.78050   0.72240   0.00000  Uiso   1.00
H145   H     0.06770   0.80400   0.69970   0.00000  Uiso   1.00
H146   H     0.08770   0.78220   0.78430   0.00000  Uiso   1.00
C147   C     0.98330   0.91920   0.79490   0.00000  Uiso   1.00
H148   H     0.97850   0.86360   0.78300   0.00000  Uiso   1.00
H149   H     0.94740   0.94930   0.76350   0.00000  Uiso   1.00
H150   H     0.97030   0.92760   0.84740   0.00000  Uiso   1.00
N151   N     0.75567   0.66014   0.33175   0.00000  Uiso   1.00
H152   H     0.79720   0.63070   0.33720   0.00000  Uiso   1.00
N153   N     0.63291   0.69666   0.30187   0.00000  Uiso   1.00
O154   O     0.88350   0.74640   0.38430   0.00000  Uiso   1.00
O155   O     0.80838   0.85550   0.39938   0.00000  Uiso   1.00
O156   O     0.66966   0.89762   0.36965   0.00000  Uiso   1.00
H157   H     0.71520   0.88400   0.38030   0.00000  Uiso   1.00
O158   O     0.56430   0.84600   0.31481   0.00000  Uiso   1.00
C159   C     0.81950   0.78403   0.38009   0.00000  Uiso   1.00
C160   C     0.75037   0.73932   0.34893   0.00000  Uiso   1.00
C161   C     0.67383   0.76127   0.33067   0.00000  Uiso   1.00
C162   C     0.63260   0.83864   0.33776   0.00000  Uiso   1.00
C163   C     0.68384   0.63587   0.30453   0.00000  Uiso   1.00
C164   C     0.66511   0.55294   0.28476   0.00000  Uiso   1.00
C165   C     0.72346   0.50044   0.26006   0.00000  Uiso   1.00
H166   H     0.77560   0.51790   0.25340   0.00000  Uiso   1.00
C167   C     0.70350   0.42165   0.24535   0.00000  Uiso   1.00
H168   H     0.74270   0.38680   0.22850   0.00000  Uiso   1.00
C169   C     0.62615   0.39367   0.25518   0.00000  Uiso   1.00
C170   C     0.56740   0.44608   0.28025   0.00000  Uiso   1.00
C171   C     0.58725   0.52579   0.29419   0.00000  Uiso   1.00
H172   H     0.54790   0.56110   0.31000   0.00000  Uiso   1.00
C173   C     0.60740   0.30719   0.23890   0.00000  Uiso   1.00
H174   H     0.65490   0.28050   0.22240   0.00000  Uiso   1.00
H175   H     0.56770   0.30400   0.19970   0.00000  Uiso   1.00
H176   H     0.58770   0.28220   0.28430   0.00000  Uiso   1.00
C177   C     0.48330   0.41920   0.29490   0.00000  Uiso   1.00
H178   H     0.47850   0.36360   0.28300   0.00000  Uiso   1.00
H179   H     0.44740   0.44930   0.26350   0.00000  Uiso   1.00
H180   H     0.47030   0.42760   0.34740   0.00000  Uiso   1.00
N181   N     0.24433   0.83986   0.33175   0.00000  Uiso   1.00
H182   H     0.20280   0.86930   0.33720   0.00000  Uiso   1.00
N183   N     0.36709   0.80334   0.30187   0.00000  Uiso   1.00
O184   O     0.11650   0.75360   0.38430   0.00000  Uiso   1.00
O185   O     0.19162   0.64450   0.39938   0.00000  Uiso   1.00
O186   O     0.33034   0.60238   0.36965   0.00000  Uiso   1.00
H187   H     0.28480   0.61600   0.38030   0.00000  Uiso   1.00
O188   O     0.43570   0.65400   0.31481   0.00000  Uiso   1.00
C189   C     0.18050   0.71597   0.38009   0.00000  Uiso   1.00
C190   C     0.24963   0.76068   0.34893   0.00000  Uiso   1.00
C191   C     0.32617   0.73873   0.33067   0.00000  Uiso   1.00
C192   C     0.36740   0.66136   0.33776   0.00000  Uiso   1.00
C193   C     0.31616   0.86413   0.30453   0.00000  Uiso   1.00
C194   C     0.33489   0.94706   0.28476   0.00000  Uiso   1.00
C195   C     0.27654   0.99956   0.26006   0.00000  Uiso   1.00
H196   H     0.22440   0.98210   0.25340   0.00000  Uiso   1.00
C197   C     0.29650   0.07835   0.24535   0.00000  Uiso   1.00
H198   H     0.25730   0.11320   0.22850   0.00000  Uiso   1.00
C199   C     0.37385   0.10633   0.25518   0.00000  Uiso   1.00
C200   C     0.43260   0.05392   0.28025   0.00000  Uiso   1.00
C201   C     0.41275   0.97421   0.29419   0.00000  Uiso   1.00
H202   H     0.45210   0.93890   0.31000   0.00000  Uiso   1.00
C203   C     0.39260   0.19281   0.23890   0.00000  Uiso   1.00
H204   H     0.34510   0.21950   0.22240   0.00000  Uiso   1.00
H205   H     0.43230   0.19600   0.19970   0.00000  Uiso   1.00
H206   H     0.41230   0.21780   0.28430   0.00000  Uiso   1.00
C207   C     0.51670   0.08080   0.29490   0.00000  Uiso   1.00
H208   H     0.52150   0.13640   0.28300   0.00000  Uiso   1.00
H209   H     0.55260   0.05070   0.26350   0.00000  Uiso   1.00
H210   H     0.52970   0.07240   0.34740   0.00000  Uiso   1.00
N211   N     0.74433   0.33986   0.83175   0.00000  Uiso   1.00
H212   H     0.70280   0.36930   0.83720   0.00000  Uiso   1.00
N213   N     0.86709   0.30334   0.80187   0.00000  Uiso   1.00
O214   O     0.61650   0.25360   0.88430   0.00000  Uiso   1.00
O215   O     0.69162   0.14450   0.89938   0.00000  Uiso   1.00
O216   O     0.83034   0.10238   0.86965   0.00000  Uiso   1.00
H217   H     0.78480   0.11600   0.88030   0.00000  Uiso   1.00
O218   O     0.93570   0.15400   0.81481   0.00000  Uiso   1.00
C219   C     0.68050   0.21597   0.88009   0.00000  Uiso   1.00
C220   C     0.74963   0.26068   0.84893   0.00000  Uiso   1.00
C221   C     0.82617   0.23873   0.83067   0.00000  Uiso   1.00
C222   C     0.86740   0.16136   0.83776   0.00000  Uiso   1.00
C223   C     0.81616   0.36413   0.80453   0.00000  Uiso   1.00
C224   C     0.83489   0.44706   0.78476   0.00000  Uiso   1.00
C225   C     0.77654   0.49956   0.76006   0.00000  Uiso   1.00
H226   H     0.72440   0.48210   0.75340   0.00000  Uiso   1.00
C227   C     0.79650   0.57835   0.74535   0.00000  Uiso   1.00
H228   H     0.75730   0.61320   0.72850   0.00000  Uiso   1.00
C229   C     0.87385   0.60633   0.75518   0.00000  Uiso   1.00
C230   C     0.93260   0.55392   0.78025   0.00000  Uiso   1.00
C231   C     0.91275   0.47421   0.79419   0.00000  Uiso   1.00
H232   H     0.95210   0.43890   0.81000   0.00000  Uiso   1.00
C233   C     0.89260   0.69281   0.73890   0.00000  Uiso   1.00
H234   H     0.84510   0.71950   0.72240   0.00000  Uiso   1.00
H235   H     0.93230   0.69600   0.69970   0.00000  Uiso   1.00
H236   H     0.91230   0.71780   0.78430   0.00000  Uiso   1.00
C237   C     0.01670   0.58080   0.79490   0.00000  Uiso   1.00
H238   H     0.02150   0.63640   0.78300   0.00000  Uiso   1.00
H239   H     0.05260   0.55070   0.76350   0.00000  Uiso   1.00
H240   H     0.02970   0.57240   0.84740   0.00000  Uiso   1.00
N241   N     0.08986   0.50567   0.41825   0.00000  Uiso   1.00
H242   H     0.11930   0.54720   0.41280   0.00000  Uiso   1.00
N243   N     0.05334   0.38291   0.44813   0.00000  Uiso   1.00
O244   O     0.00360   0.63350   0.36570   0.00000  Uiso   1.00
O245   O     0.89450   0.55838   0.35062   0.00000  Uiso   1.00
O246   O     0.85238   0.41966   0.38035   0.00000  Uiso   1.00
H247   H     0.86600   0.46520   0.36970   0.00000  Uiso   1.00
O248   O     0.90400   0.31430   0.43519   0.00000  Uiso   1.00
C249   C     0.96597   0.56950   0.36991   0.00000  Uiso   1.00
C250   C     0.01068   0.50037   0.40107   0.00000  Uiso   1.00
C251   C     0.98873   0.42383   0.41933   0.00000  Uiso   1.00
C252   C     0.91136   0.38260   0.41224   0.00000  Uiso   1.00
C253   C     0.11413   0.43384   0.44547   0.00000  Uiso   1.00
C254   C     0.19706   0.41511   0.46524   0.00000  Uiso   1.00
C255   C     0.24956   0.47346   0.48994   0.00000  Uiso   1.00
H256   H     0.23210   0.52560   0.49660   0.00000  Uiso   1.00
C257   C     0.32835   0.45350   0.50465   0.00000  Uiso   1.00
H258   H     0.36320   0.49270   0.52150   0.00000  Uiso   1.00
C259   C     0.35633   0.37615   0.49482   0.00000  Uiso   1.00
C260   C     0.30392   0.31740   0.46975   0.00000  Uiso   1.00
C261   C     0.22421   0.33725   0.45581   0.00000  Uiso   1.00
H262   H     0.18890   0.29790   0.44000   0.00000  Uiso   1.00
C263   C     0.44281   0.35740   0.51110   0.00000  Uiso   1.00
H264   H     0.46950   0.40490   0.52760   0.00000  Uiso   1.00
H265   H     0.44600   0.31770   0.55030   0.00000  Uiso   1.00
H266   H     0.46780   0.33770   0.46570   0.00000  Uiso   1.00
C267   C     0.33080   0.23330   0.45510   0.00000  Uiso   1.00
H268   H     0.38640   0.22850   0.46700   0.00000  Uiso   1.00
H269   H     0.30070   0.19740   0.48650   0.00000  Uiso   1.00
H270   H     0.32240   0.22030   0.40260   0.00000  Uiso   1.00
N271   N     0.58986   0.00567   0.91825   0.00000  Uiso   1.00
H272   H     0.61930   0.04720   0.91280   0.00000  Uiso   1.00
N273   N     0.55334   0.88291   0.94813   0.00000  Uiso   1.00
O274   O     0.50360   0.13350   0.86570   0.00000  Uiso   1.00
O275   O     0.39450   0.05838   0.85062   0.00000  Uiso   1.00
O276   O     0.35238   0.91966   0.88035   0.00000  Uiso   1.00
H277   H     0.36600   0.96520   0.86970   0.00000  Uiso   1.00
O278   O     0.40400   0.81430   0.93519   0.00000  Uiso   1.00
C279   C     0.46597   0.06950   0.86991   0.00000  Uiso   1.00
C280   C     0.51068   0.00037   0.90107   0.00000  Uiso   1.00
C281   C     0.48873   0.92383   0.91933   0.00000  Uiso   1.00
C282   C     0.41136   0.88260   0.91224   0.00000  Uiso   1.00
C283   C     0.61413   0.93384   0.94547   0.00000  Uiso   1.00
C284   C     0.69706   0.91511   0.96524   0.00000  Uiso   1.00
C285   C     0.74956   0.97346   0.98994   0.00000  Uiso   1.00
H286   H     0.73210   0.02560   0.99660   0.00000  Uiso   1.00
C287   C     0.82835   0.95350   0.00465   0.00000  Uiso   1.00
H288   H     0.86320   0.99270   0.02150   0.00000  Uiso   1.00
C289   C     0.85633   0.87615   0.99482   0.00000  Uiso   1.00
C290   C     0.80392   0.81740   0.96975   0.00000  Uiso   1.00
C291   C     0.72421   0.83725   0.95581   0.00000  Uiso   1.00
H292   H     0.68890   0.79790   0.94000   0.00000  Uiso   1.00
C293   C     0.94281   0.85740   0.01110   0.00000  Uiso   1.00
H294   H     0.96950   0.90490   0.02760   0.00000  Uiso   1.00
H295   H     0.94600   0.81770   0.05030   0.00000  Uiso   1.00
H296   H     0.96780   0.83770   0.96570   0.00000  Uiso   1.00
C297   C     0.83080   0.73330   0.95510   0.00000  Uiso   1.00
H298   H     0.88640   0.72850   0.96700   0.00000  Uiso   1.00
H299   H     0.80070   0.69740   0.98650   0.00000  Uiso   1.00
H300   H     0.82240   0.72030   0.90260   0.00000  Uiso   1.00
N301   N     0.41014   0.49433   0.91825   0.00000  Uiso   1.00
H302   H     0.38070   0.45280   0.91280   0.00000  Uiso   1.00
N303   N     0.44666   0.61709   0.94813   0.00000  Uiso   1.00
O304   O     0.49640   0.36650   0.86570   0.00000  Uiso   1.00
O305   O     0.60550   0.44162   0.85062   0.00000  Uiso   1.00
O306   O     0.64762   0.58034   0.88035   0.00000  Uiso   1.00
H307   H     0.63400   0.53480   0.86970   0.00000  Uiso   1.00
O308   O     0.59600   0.68570   0.93519   0.00000  Uiso   1.00
C309   C     0.53403   0.43050   0.86991   0.00000  Uiso   1.00
C310   C     0.48932   0.49963   0.90107   0.00000  Uiso   1.00
C311   C     0.51127   0.57617   0.91933   0.00000  Uiso   1.00
C312   C     0.58864   0.61740   0.91224   0.00000  Uiso   1.00
C313   C     0.38587   0.56616   0.94547   0.00000  Uiso   1.00
C314   C     0.30294   0.58489   0.96524   0.00000  Uiso   1.00
C315   C     0.25044   0.52654   0.98994   0.00000  Uiso   1.00
H316   H     0.26790   0.47440   0.99660   0.00000  Uiso   1.00
C317   C     0.17165   0.54650   0.00465   0.00000  Uiso   1.00
H318   H     0.13680   0.50730   0.02150   0.00000  Uiso   1.00
C319   C     0.14367   0.62385   0.99482   0.00000  Uiso   1.00
C320   C     0.19608   0.68260   0.96975   0.00000  Uiso   1.00
C321   C     0.27579   0.66275   0.95581   0.00000  Uiso   1.00
H322   H     0.31110   0.70210   0.94000   0.00000  Uiso   1.00
C323   C     0.05719   0.64260   0.01110   0.00000  Uiso   1.00
H324   H     0.03050   0.59510   0.02760   0.00000  Uiso   1.00
H325   H     0.05400   0.68230   0.05030   0.00000  Uiso   1.00
H326   H     0.03220   0.66230   0.96570   0.00000  Uiso   1.00
C327   C     0.16920   0.76670   0.95510   0.00000  Uiso   1.00
H328   H     0.11360   0.77150   0.96700   0.00000  Uiso   1.00
H329   H     0.19930   0.80260   0.98650   0.00000  Uiso   1.00
H330   H     0.17760   0.77970   0.90260   0.00000  Uiso   1.00
N331   N     0.91014   0.99433   0.41825   0.00000  Uiso   1.00
H332   H     0.88070   0.95280   0.41280   0.00000  Uiso   1.00
N333   N     0.94666   0.11709   0.44813   0.00000  Uiso   1.00
O334   O     0.99640   0.86650   0.36570   0.00000  Uiso   1.00
O335   O     0.10550   0.94162   0.35062   0.00000  Uiso   1.00
O336   O     0.14762   0.08034   0.38035   0.00000  Uiso   1.00
H337   H     0.13400   0.03480   0.36970   0.00000  Uiso   1.00
O338   O     0.09600   0.18570   0.43519   0.00000  Uiso   1.00
C339   C     0.03403   0.93050   0.36991   0.00000  Uiso   1.00
C340   C     0.98932   0.99963   0.40107   0.00000  Uiso   1.00
C341   C     0.01127   0.07617   0.41933   0.00000  Uiso   1.00
C342   C     0.08864   0.11740   0.41224   0.00000  Uiso   1.00
C343   C     0.88587   0.06616   0.44547   0.00000  Uiso   1.00
C344   C     0.80294   0.08489   0.46524   0.00000  Uiso   1.00
C345   C     0.75044   0.02654   0.48994   0.00000  Uiso   1.00
H346   H     0.76790   0.97440   0.49660   0.00000  Uiso   1.00
C347   C     0.67165   0.04650   0.50465   0.00000  Uiso   1.00
H348   H     0.63680   0.00730   0.52150   0.00000  Uiso   1.00
C349   C     0.64367   0.12385   0.49482   0.00000  Uiso   1.00
C350   C     0.69608   0.18260   0.46975   0.00000  Uiso   1.00
C351   C     0.77579   0.16275   0.45581   0.00000  Uiso   1.00
H352   H     0.81110   0.20210   0.44000   0.00000  Uiso   1.00
C353   C     0.55719   0.14260   0.51110   0.00000  Uiso   1.00
H354   H     0.53050   0.09510   0.52760   0.00000  Uiso   1.00
H355   H     0.55400   0.18230   0.55030   0.00000  Uiso   1.00
H356   H     0.53220   0.16230   0.46570   0.00000  Uiso   1.00
C357   C     0.66920   0.26670   0.45510   0.00000  Uiso   1.00
H358   H     0.61360   0.27150   0.46700   0.00000  Uiso   1.00
H359   H     0.69930   0.30260   0.48650   0.00000  Uiso   1.00
H360   H     0.67760   0.27970   0.40260   0.00000  Uiso   1.00
N361   N     0.74433   0.83986   0.16825   0.00000  Uiso   1.00
H362   H     0.70280   0.86930   0.16280   0.00000  Uiso   1.00
N363   N     0.86709   0.80334   0.19813   0.00000  Uiso   1.00
O364   O     0.61650   0.75360   0.11570   0.00000  Uiso   1.00
O365   O     0.69162   0.64450   0.10062   0.00000  Uiso   1.00
O366   O     0.83034   0.60238   0.13035   0.00000  Uiso   1.00
H367   H     0.78480   0.61600   0.11970   0.00000  Uiso   1.00
O368   O     0.93570   0.65400   0.18519   0.00000  Uiso   1.00
C369   C     0.68050   0.71597   0.11991   0.00000  Uiso   1.00
C370   C     0.74963   0.76068   0.15107   0.00000  Uiso   1.00
C371   C     0.82617   0.73873   0.16933   0.00000  Uiso   1.00
C372   C     0.86740   0.66136   0.16224   0.00000  Uiso   1.00
C373   C     0.81616   0.86413   0.19547   0.00000  Uiso   1.00
C374   C     0.83489   0.94706   0.21524   0.00000  Uiso   1.00
C375   C     0.77654   0.99956   0.23994   0.00000  Uiso   1.00
H376   H     0.72440   0.98210   0.24660   0.00000  Uiso   1.00
C377   C     0.79650   0.07835   0.25465   0.00000  Uiso   1.00
H378   H     0.75730   0.11320   0.27150   0.00000  Uiso   1.00
C379   C     0.87385   0.10633   0.24482   0.00000  Uiso   1.00
C380   C     0.93260   0.05392   0.21975   0.00000  Uiso   1.00
C381   C     0.91275   0.97421   0.20581   0.00000  Uiso   1.00
H382   H     0.95210   0.93890   0.19000   0.00000  Uiso   1.00
C383   C     0.89260   0.19281   0.26110   0.00000  Uiso   1.00
H384   H     0.84510   0.21950   0.27760   0.00000  Uiso   1.00
H385   H     0.93230   0.19600   0.30030   0.00000  Uiso   1.00
H386   H     0.91230   0.21780   0.21570   0.00000  Uiso   1.00
C387   C     0.01670   0.08080   0.20510   0.00000  Uiso   1.00
H388   H     0.02150   0.13640   0.21700   0.00000  Uiso   1.00
H389   H     0.05260   0.05070   0.23650   0.00000  Uiso   1.00
H390   H     0.02970   0.07240   0.15260   0.00000  Uiso   1.00
N391   N     0.24433   0.33986   0.66825   0.00000  Uiso   1.00
H392   H     0.20280   0.36930   0.66280   0.00000  Uiso   1.00
N393   N     0.36709   0.30334   0.69813   0.00000  Uiso   1.00
O394   O     0.11650   0.25360   0.61570   0.00000  Uiso   1.00
O395   O     0.19162   0.14450   0.60062   0.00000  Uiso   1.00
O396   O     0.33034   0.10238   0.63035   0.00000  Uiso   1.00
H397   H     0.28480   0.11600   0.61970   0.00000  Uiso   1.00
O398   O     0.43570   0.15400   0.68519   0.00000  Uiso   1.00
C399   C     0.18050   0.21597   0.61991   0.00000  Uiso   1.00
C400   C     0.24963   0.26068   0.65107   0.00000  Uiso   1.00
C401   C     0.32617   0.23873   0.66933   0.00000  Uiso   1.00
C402   C     0.36740   0.16136   0.66224   0.00000  Uiso   1.00
C403   C     0.31616   0.36413   0.69547   0.00000  Uiso   1.00
C404   C     0.33489   0.44706   0.71524   0.00000  Uiso   1.00
C405   C     0.27654   0.49956   0.73994   0.00000  Uiso   1.00
H406   H     0.22440   0.48210   0.74660   0.00000  Uiso   1.00
C407   C     0.29650   0.57835   0.75465   0.00000  Uiso   1.00
H408   H     0.25730   0.61320   0.77150   0.00000  Uiso   1.00
C409   C     0.37385   0.60633   0.74482   0.00000  Uiso   1.00
C410   C     0.43260   0.55392   0.71975   0.00000  Uiso   1.00
C411   C     0.41275   0.47421   0.70581   0.00000  Uiso   1.00
H412   H     0.45210   0.43890   0.69000   0.00000  Uiso   1.00
C413   C     0.39260   0.69281   0.76110   0.00000  Uiso   1.00
H414   H     0.34510   0.71950   0.77760   0.00000  Uiso   1.00
H415   H     0.43230   0.69600   0.80030   0.00000  Uiso   1.00
H416   H     0.41230   0.71780   0.71570   0.00000  Uiso   1.00
C417   C     0.51670   0.58080   0.70510   0.00000  Uiso   1.00
H418   H     0.52150   0.63640   0.71700   0.00000  Uiso   1.00
H419   H     0.55260   0.55070   0.73650   0.00000  Uiso   1.00
H420   H     0.52970   0.57240   0.65260   0.00000  Uiso   1.00
N421   N     0.75567   0.16014   0.66825   0.00000  Uiso   1.00
H422   H     0.79720   0.13070   0.66280   0.00000  Uiso   1.00
N423   N     0.63291   0.19666   0.69813   0.00000  Uiso   1.00
O424   O     0.88350   0.24640   0.61570   0.00000  Uiso   1.00
O425   O     0.80838   0.35550   0.60062   0.00000  Uiso   1.00
O426   O     0.66966   0.39762   0.63035   0.00000  Uiso   1.00
H427   H     0.71520   0.38400   0.61970   0.00000  Uiso   1.00
O428   O     0.56430   0.34600   0.68519   0.00000  Uiso   1.00
C429   C     0.81950   0.28403   0.61991   0.00000  Uiso   1.00
C430   C     0.75037   0.23932   0.65107   0.00000  Uiso   1.00
C431   C     0.67383   0.26127   0.66933   0.00000  Uiso   1.00
C432   C     0.63260   0.33864   0.66224   0.00000  Uiso   1.00
C433   C     0.68384   0.13587   0.69547   0.00000  Uiso   1.00
C434   C     0.66511   0.05294   0.71524   0.00000  Uiso   1.00
C435   C     0.72346   0.00044   0.73994   0.00000  Uiso   1.00
H436   H     0.77560   0.01790   0.74660   0.00000  Uiso   1.00
C437   C     0.70350   0.92165   0.75465   0.00000  Uiso   1.00
H438   H     0.74270   0.88680   0.77150   0.00000  Uiso   1.00
C439   C     0.62615   0.89367   0.74482   0.00000  Uiso   1.00
C440   C     0.56740   0.94608   0.71975   0.00000  Uiso   1.00
C441   C     0.58725   0.02579   0.70581   0.00000  Uiso   1.00
H442   H     0.54790   0.06110   0.69000   0.00000  Uiso   1.00
C443   C     0.60740   0.80719   0.76110   0.00000  Uiso   1.00
H444   H     0.65490   0.78050   0.77760   0.00000  Uiso   1.00
H445   H     0.56770   0.80400   0.80030   0.00000  Uiso   1.00
H446   H     0.58770   0.78220   0.71570   0.00000  Uiso   1.00
C447   C     0.48330   0.91920   0.70510   0.00000  Uiso   1.00
H448   H     0.47850   0.86360   0.71700   0.00000  Uiso   1.00
H449   H     0.44740   0.94930   0.73650   0.00000  Uiso   1.00
H450   H     0.47030   0.92760   0.65260   0.00000  Uiso   1.00
N451   N     0.25567   0.66014   0.16825   0.00000  Uiso   1.00
H452   H     0.29720   0.63070   0.16280   0.00000  Uiso   1.00
N453   N     0.13291   0.69666   0.19813   0.00000  Uiso   1.00
O454   O     0.38350   0.74640   0.11570   0.00000  Uiso   1.00
O455   O     0.30838   0.85550   0.10062   0.00000  Uiso   1.00
O456   O     0.16966   0.89762   0.13035   0.00000  Uiso   1.00
H457   H     0.21520   0.88400   0.11970   0.00000  Uiso   1.00
O458   O     0.06430   0.84600   0.18519   0.00000  Uiso   1.00
C459   C     0.31950   0.78403   0.11991   0.00000  Uiso   1.00
C460   C     0.25037   0.73932   0.15107   0.00000  Uiso   1.00
C461   C     0.17383   0.76127   0.16933   0.00000  Uiso   1.00
C462   C     0.13260   0.83864   0.16224   0.00000  Uiso   1.00
C463   C     0.18384   0.63587   0.19547   0.00000  Uiso   1.00
C464   C     0.16511   0.55294   0.21524   0.00000  Uiso   1.00
C465   C     0.22346   0.50044   0.23994   0.00000  Uiso   1.00
H466   H     0.27560   0.51790   0.24660   0.00000  Uiso   1.00
C467   C     0.20350   0.42165   0.25465   0.00000  Uiso   1.00
H468   H     0.24270   0.38680   0.27150   0.00000  Uiso   1.00
C469   C     0.12615   0.39367   0.24482   0.00000  Uiso   1.00
C470   C     0.06740   0.44608   0.21975   0.00000  Uiso   1.00
C471   C     0.08725   0.52579   0.20581   0.00000  Uiso   1.00
H472   H     0.04790   0.56110   0.19000   0.00000  Uiso   1.00
C473   C     0.10740   0.30719   0.26110   0.00000  Uiso   1.00
H474   H     0.15490   0.28050   0.27760   0.00000  Uiso   1.00
H475   H     0.06770   0.30400   0.30030   0.00000  Uiso   1.00
H476   H     0.08770   0.28220   0.21570   0.00000  Uiso   1.00
C477   C     0.98330   0.41920   0.20510   0.00000  Uiso   1.00
H478   H     0.97850   0.36360   0.21700   0.00000  Uiso   1.00
H479   H     0.94740   0.44930   0.23650   0.00000  Uiso   1.00
H480   H     0.97030   0.42760   0.15260   0.00000  Uiso   1.00
Sr481  Sr   -0.00000   0.75000   0.47656   0.00000  Uiso   1.00
Sr482  Sr    0.50000   0.25000   0.97656   0.00000  Uiso   1.00
Sr483  Sr    0.00000   0.25000   0.72656   0.00000  Uiso   1.00
Sr484  Sr    0.50000   0.75000   0.22656   0.00000  Uiso   1.00
Sr485  Sr    0.00000   0.25000   0.52344   0.00000  Uiso   1.00
Sr486  Sr    0.50000   0.75000   0.02344   0.00000  Uiso   1.00
Sr487  Sr    0.00000   0.75000   0.27344   0.00000  Uiso   1.00
Sr488  Sr    0.50000   0.25000   0.77344   0.00000  Uiso   1.00
loop_
_geom_bond_atom_site_label_1
_geom_bond_atom_site_label_2
_geom_bond_distance
_geom_bond_site_symmetry_2
_ccdc_geom_bond_type
N1     H2      0.860   .     S
N1     C10     1.367   .     S
N1     C13     1.360   .     S
N3     Sr481   2.746   1_655 S
N3     C11     1.381   1_655 S
N3     C13     1.333   .     S
O4     C9      1.249   1_655 S
O4     Sr483   2.542   1_655 S
O4     Sr485   2.762   1_655 S
O5     C9      1.261   .     S
O6     H7      0.820   .     S
O6     C12     1.297   .     S
O8     Sr481   2.485   .     S
O8     C12     1.222   .     S
C9     O4      1.249   1_455 S
C9     C10     1.487   1_455 S
C10    C9      1.487   1_655 S
C10    C11     1.375   1_655 S
C11    N3      1.381   1_455 S
C11    C10     1.375   1_455 S
C11    C12     1.478   .     S
C13    C14     1.470   .     S
C14    C15     1.388   .     S
C14    C21     1.395   .     S
C15    H16     0.931   .     S
C15    C17     1.389   .     S
C17    H18     0.929   .     S
C17    C19     1.392   .     S
C19    C20     1.394   .     S
C19    C23     1.513   .     S
C20    C27     1.505   .     S
C20    C21     1.401   .     S
C21    H22     0.930   .     S
C23    H24     0.960   .     S
C23    H25     0.960   .     S
C23    H26     0.961   .     S
C27    H28     0.960   .     S
C27    H29     0.961   .     S
C27    H30     0.959   .     S
N31    H32     0.860   .     S
N31    C40     1.367   .     S
N31    C43     1.360   1_565 S
N33    Sr482   2.746   1_554 S
N33    C41     1.381   .     S
N33    C43     1.333   .     S
O34    C39     1.249   .     S
O34    Sr484   2.542   .     S
O34    Sr486   2.762   .     S
O35    C39     1.261   .     S
O36    H37     0.820   .     S
O36    C42     1.297   .     S
O38    Sr482   2.485   1_554 S
O38    C42     1.222   .     S
C39    C40     1.487   .     S
C40    C41     1.375   1_565 S
C41    C40     1.375   1_545 S
C41    C42     1.478   .     S
C43    N31     1.360   1_545 S
C43    C44     1.470   .     S
C44    C45     1.388   .     S
C44    C51     1.395   .     S
C45    H46     0.931   1_545 S
C45    C47     1.389   1_554 S
H46    C45     0.931   1_565 S
C47    C45     1.389   1_556 S
C47    H48     0.929   .     S
C47    C49     1.392   1_556 S
C49    C47     1.392   1_554 S
C49    C50     1.394   .     S
C49    C53     1.513   1_554 S
C50    C57     1.505   .     S
C50    C51     1.401   .     S
C51    H52     0.930   .     S
C53    C49     1.513   1_556 S
C53    H54     0.960   .     S
C53    H55     0.960   .     S
C53    H56     0.961   1_556 S
H56    C53     0.961   1_554 S
C57    H58     0.960   .     S
C57    H59     0.961   .     S
C57    H60     0.959   .     S
N61    H62     0.860   .     S
N61    C70     1.367   .     S
N61    C73     1.360   .     S
N63    Sr482   2.746   1_554 S
N63    C71     1.381   .     S
N63    C73     1.333   .     S
O64    C69     1.249   .     S
O64    Sr484   2.542   .     S
O64    Sr486   2.762   .     S
O65    C69     1.261   .     S
O66    H67     0.820   .     S
O66    C72     1.297   .     S
O68    Sr482   2.485   1_554 S
O68    C72     1.222   .     S
C69    C70     1.487   .     S
C70    C71     1.375   .     S
C71    C72     1.478   .     S
C73    C74     1.470   .     S
C74    C75     1.388   .     S
C74    C81     1.395   .     S
C75    H76     0.931   .     S
C75    C77     1.389   1_554 S
C77    C75     1.389   1_556 S
C77    H78     0.929   .     S
C77    C79     1.392   1_556 S
C79    C77     1.392   1_554 S
C79    C80     1.394   .     S
C79    C83     1.513   1_554 S
C80    C87     1.505   .     S
C80    C81     1.401   .     S
C81    H82     0.930   .     S
C83    C79     1.513   1_556 S
C83    H84     0.960   .     S
C83    H85     0.960   .     S
C83    H86     0.961   1_556 S
H86    C83     0.961   1_554 S
C87    H88     0.960   .     S
C87    H89     0.961   .     S
C87    H90     0.959   .     S
N91    H92     0.860   .     S
N91    C100    1.367   .     S
N91    C103    1.360   1_545 S
N93    Sr481   2.746   .     S
N93    C101    1.381   1_455 S
N93    C103    1.333   .     S
O94    C99     1.249   1_455 S
O94    Sr483   2.542   .     S
O94    Sr485   2.762   .     S
O95    C99     1.261   .     S
O96    H97     0.820   .     S
O96    C102    1.297   .     S
O98    Sr481   2.485   1_655 S
O98    C102    1.222   .     S
C99    O94     1.249   1_655 S
C99    C100    1.487   1_655 S
C100   C99     1.487   1_455 S
C100   C101    1.375   1_445 S
C101   N93     1.381   1_655 S
C101   C100    1.375   1_665 S
C101   C102    1.478   .     S
C103   N91     1.360   1_565 S
C103   C104    1.470   .     S
C104   C105    1.388   .     S
C104   C111    1.395   .     S
C105   H106    0.931   1_565 S
C105   C107    1.389   .     S
H106   C105    0.931   1_545 S
C107   H108    0.929   .     S
C107   C109    1.392   .     S
C109   C110    1.394   .     S
C109   C113    1.513   .     S
C110   C117    1.505   .     S
C110   C111    1.401   .     S
C111   H112    0.930   .     S
C113   H114    0.960   .     S
C113   H115    0.960   .     S
C113   H116    0.961   .     S
C117   H118    0.960   .     S
C117   H119    0.961   .     S
C117   H120    0.959   .     S
N121   H122    0.860   .     S
N121   C130    1.367   .     S
N121   C133    1.360   .     S
N123   Sr483   2.746   .     S
N123   C131    1.381   .     S
N123   C133    1.333   .     S
O124   C129    1.249   .     S
O124   Sr482   2.542   .     S
O124   Sr488   2.762   .     S
O125   C129    1.261   .     S
O126   H127    0.820   .     S
O126   C132    1.297   .     S
O128   Sr483   2.485   .     S
O128   C132    1.222   .     S
C129   C130    1.487   .     S
C130   C131    1.375   .     S
C131   C132    1.478   .     S
C133   C134    1.470   .     S
C134   C135    1.388   .     S
C134   C141    1.395   .     S
C135   H136    0.931   .     S
C135   C137    1.389   1_545 S
C137   C135    1.389   1_565 S
C137   H138    0.929   .     S
C137   C139    1.392   .     S
C139   C140    1.394   .     S
C139   C143    1.513   .     S
C140   C147    1.505   1_455 S
C140   C141    1.401   1_565 S
C141   H142    0.930   .     S
C141   C140    1.401   1_545 S
C143   H144    0.960   .     S
C143   H145    0.960   .     S
C143   H146    0.961   .     S
C147   C140    1.505   1_655 S
C147   H148    0.960   .     S
C147   H149    0.961   .     S
C147   H150    0.959   .     S
N151   H152    0.860   .     S
N151   C160    1.367   .     S
N151   C163    1.360   .     S
N153   Sr484   2.746   .     S
N153   C161    1.381   .     S
N153   C163    1.333   .     S
O154   C159    1.249   .     S
O154   Sr481   2.542   1_655 S
O154   Sr487   2.762   1_655 S
O155   C159    1.261   .     S
O156   H157    0.820   .     S
O156   C162    1.297   .     S
O158   Sr484   2.485   .     S
O158   C162    1.222   .     S
C159   C160    1.487   .     S
C160   C161    1.375   .     S
C161   C162    1.478   .     S
C163   C164    1.470   .     S
C164   C165    1.388   .     S
C164   C171    1.395   .     S
C165   H166    0.931   .     S
C165   C167    1.389   .     S
C167   H168    0.929   .     S
C167   C169    1.392   .     S
C169   C170    1.394   .     S
C169   C173    1.513   .     S
C170   C177    1.505   .     S
C170   C171    1.401   .     S
C171   H172    0.930   .     S
C173   H174    0.960   .     S
C173   H175    0.960   .     S
C173   H176    0.961   .     S
C177   H178    0.960   .     S
C177   H179    0.961   .     S
C177   H180    0.959   .     S
N181   H182    0.860   .     S
N181   C190    1.367   .     S
N181   C193    1.360   .     S
N183   Sr484   2.746   .     S
N183   C191    1.381   .     S
N183   C193    1.333   .     S
O184   C189    1.249   .     S
O184   Sr481   2.542   .     S
O184   Sr487   2.762   .     S
O185   C189    1.261   .     S
O186   H187    0.820   .     S
O186   C192    1.297   .     S
O188   Sr484   2.485   .     S
O188   C192    1.222   .     S
C189   C190    1.487   .     S
C190   C191    1.375   .     S
C191   C192    1.478   .     S
C193   C194    1.470   .     S
C194   C195    1.388   .     S
C194   C201    1.395   .     S
C195   H196    0.931   .     S
C195   C197    1.389   1_565 S
C197   C195    1.389   1_545 S
C197   H198    0.929   .     S
C197   C199    1.392   .     S
C199   C200    1.394   .     S
C199   C203    1.513   .     S
C200   C207    1.505   .     S
C200   C201    1.401   1_545 S
C201   H202    0.930   .     S
C201   C200    1.401   1_565 S
C203   H204    0.960   .     S
C203   H205    0.960   .     S
C203   H206    0.961   .     S
C207   H208    0.960   .     S
C207   H209    0.961   .     S
C207   H210    0.959   .     S
N211   H212    0.860   .     S
N211   C220    1.367   .     S
N211   C223    1.360   .     S
N213   Sr483   2.746   1_655 S
N213   C221    1.381   .     S
N213   C223    1.333   .     S
O214   C219    1.249   .     S
O214   Sr482   2.542   .     S
O214   Sr488   2.762   .     S
O215   C219    1.261   .     S
O216   H217    0.820   .     S
O216   C222    1.297   .     S
O218   Sr483   2.485   1_655 S
O218   C222    1.222   .     S
C219   C220    1.487   .     S
C220   C221    1.375   .     S
C221   C222    1.478   .     S
C223   C224    1.470   .     S
C224   C225    1.388   .     S
C224   C231    1.395   .     S
C225   H226    0.931   .     S
C225   C227    1.389   .     S
C227   H228    0.929   .     S
C227   C229    1.392   .     S
C229   C230    1.394   .     S
C229   C233    1.513   .     S
C230   C237    1.505   1_655 S
C230   C231    1.401   .     S
C231   H232    0.930   .     S
C233   H234    0.960   .     S
C233   H235    0.960   .     S
C233   H236    0.961   .     S
C237   C230    1.505   1_455 S
C237   H238    0.960   .     S
C237   H239    0.961   .     S
C237   H240    0.959   .     S
N241   H242    0.860   .     S
N241   C250    1.367   .     S
N241   C253    1.360   .     S
N243   Sr485   2.746   .     S
N243   C251    1.381   1_455 S
N243   C253    1.333   .     S
O244   C249    1.249   1_455 S
O244   Sr487   2.542   .     S
O244   Sr481   2.762   .     S
O245   C249    1.261   .     S
O246   H247    0.820   .     S
O246   C252    1.297   .     S
O248   Sr485   2.485   1_655 S
O248   C252    1.222   .     S
C249   O244    1.249   1_655 S
C249   C250    1.487   1_655 S
C250   C249    1.487   1_455 S
C250   C251    1.375   1_455 S
C251   N243    1.381   1_655 S
C251   C250    1.375   1_655 S
C251   C252    1.478   .     S
C253   C254    1.470   .     S
C254   C255    1.388   .     S
C254   C261    1.395   .     S
C255   H256    0.931   .     S
C255   C257    1.389   .     S
C257   H258    0.929   .     S
C257   C259    1.392   .     S
C259   C260    1.394   .     S
C259   C263    1.513   .     S
C260   C267    1.505   .     S
C260   C261    1.401   .     S
C261   H262    0.930   .     S
C263   H264    0.960   .     S
C263   H265    0.960   .     S
C263   H266    0.961   .     S
C267   H268    0.960   .     S
C267   H269    0.961   .     S
C267   H270    0.959   .     S
N271   H272    0.860   .     S
N271   C280    1.367   .     S
N271   C283    1.360   1_545 S
N273   Sr486   2.746   1_556 S
N273   C281    1.381   .     S
N273   C283    1.333   .     S
O274   C279    1.249   .     S
O274   Sr488   2.542   .     S
O274   Sr482   2.762   .     S
O275   C279    1.261   .     S
O276   H277    0.820   .     S
O276   C282    1.297   .     S
O278   Sr486   2.485   1_556 S
O278   C282    1.222   .     S
C279   C280    1.487   .     S
C280   C281    1.375   1_545 S
C281   C280    1.375   1_565 S
C281   C282    1.478   .     S
C283   N271    1.360   1_565 S
C283   C284    1.470   .     S
C284   C285    1.388   .     S
C284   C291    1.395   .     S
C285   H286    0.931   1_565 S
C285   C287    1.389   1_556 S
H286   C285    0.931   1_545 S
C287   C285    1.389   1_554 S
C287   H288    0.929   .     S
C287   C289    1.392   1_554 S
C289   C287    1.392   1_556 S
C289   C290    1.394   .     S
C289   C293    1.513   1_556 S
C290   C297    1.505   .     S
C290   C291    1.401   .     S
C291   H292    0.930   .     S
C293   C289    1.513   1_554 S
C293   H294    0.960   .     S
C293   H295    0.960   .     S
C293   H296    0.961   1_554 S
H296   C293    0.961   1_556 S
C297   H298    0.960   .     S
C297   H299    0.961   .     S
C297   H300    0.959   .     S
N301   H302    0.860   .     S
N301   C310    1.367   .     S
N301   C313    1.360   .     S
N303   Sr486   2.746   1_556 S
N303   C311    1.381   .     S
N303   C313    1.333   .     S
O304   C309    1.249   .     S
O304   Sr488   2.542   .     S
O304   Sr482   2.762   .     S
O305   C309    1.261   .     S
O306   H307    0.820   .     S
O306   C312    1.297   .     S
O308   Sr486   2.485   1_556 S
O308   C312    1.222   .     S
C309   C310    1.487   .     S
C310   C311    1.375   .     S
C311   C312    1.478   .     S
C313   C314    1.470   .     S
C314   C315    1.388   .     S
C314   C321    1.395   .     S
C315   H316    0.931   .     S
C315   C317    1.389   1_556 S
C317   C315    1.389   1_554 S
C317   H318    0.929   .     S
C317   C319    1.392   1_554 S
C319   C317    1.392   1_556 S
C319   C320    1.394   .     S
C319   C323    1.513   1_556 S
C320   C327    1.505   .     S
C320   C321    1.401   .     S
C321   H322    0.930   .     S
C323   C319    1.513   1_554 S
C323   H324    0.960   .     S
C323   H325    0.960   .     S
C323   H326    0.961   1_554 S
H326   C323    0.961   1_556 S
C327   H328    0.960   .     S
C327   H329    0.961   .     S
C327   H330    0.959   .     S
N331   H332    0.860   .     S
N331   C340    1.367   .     S
N331   C343    1.360   1_565 S
N333   Sr485   2.746   1_655 S
N333   C341    1.381   1_655 S
N333   C343    1.333   .     S
O334   C339    1.249   1_655 S
O334   Sr487   2.542   1_655 S
O334   Sr481   2.762   1_655 S
O335   C339    1.261   .     S
O336   H337    0.820   .     S
O336   C342    1.297   .     S
O338   Sr485   2.485   .     S
O338   C342    1.222   .     S
C339   O334    1.249   1_455 S
C339   C340    1.487   1_455 S
C340   C339    1.487   1_655 S
C340   C341    1.375   1_665 S
C341   N333    1.381   1_455 S
C341   C340    1.375   1_445 S
C341   C342    1.478   .     S
C343   N331    1.360   1_545 S
C343   C344    1.470   .     S
C344   C345    1.388   .     S
C344   C351    1.395   .     S
C345   H346    0.931   1_545 S
C345   C347    1.389   .     S
H346   C345    0.931   1_565 S
C347   H348    0.929   .     S
C347   C349    1.392   .     S
C349   C350    1.394   .     S
C349   C353    1.513   .     S
C350   C357    1.505   .     S
C350   C351    1.401   .     S
C351   H352    0.930   .     S
C353   H354    0.960   .     S
C353   H355    0.960   .     S
C353   H356    0.961   .     S
C357   H358    0.960   .     S
C357   H359    0.961   .     S
C357   H360    0.959   .     S
N361   H362    0.860   .     S
N361   C370    1.367   .     S
N361   C373    1.360   .     S
N363   Sr487   2.746   1_655 S
N363   C371    1.381   .     S
N363   C373    1.333   .     S
O364   C369    1.249   .     S
O364   Sr486   2.542   .     S
O364   Sr484   2.762   .     S
O365   C369    1.261   .     S
O366   H367    0.820   .     S
O366   C372    1.297   .     S
O368   Sr487   2.485   1_655 S
O368   C372    1.222   .     S
C369   C370    1.487   .     S
C370   C371    1.375   .     S
C371   C372    1.478   .     S
C373   C374    1.470   .     S
C374   C375    1.388   .     S
C374   C381    1.395   .     S
C375   H376    0.931   .     S
C375   C377    1.389   1_565 S
C377   C375    1.389   1_545 S
C377   H378    0.929   .     S
C377   C379    1.392   .     S
C379   C380    1.394   .     S
C379   C383    1.513   .     S
C380   C387    1.505   1_655 S
C380   C381    1.401   1_545 S
C381   H382    0.930   .     S
C381   C380    1.401   1_565 S
C383   H384    0.960   .     S
C383   H385    0.960   .     S
C383   H386    0.961   .     S
C387   C380    1.505   1_455 S
C387   H388    0.960   .     S
C387   H389    0.961   .     S
C387   H390    0.959   .     S
N391   H392    0.860   .     S
N391   C400    1.367   .     S
N391   C403    1.360   .     S
N393   Sr488   2.746   .     S
N393   C401    1.381   .     S
N393   C403    1.333   .     S
O394   C399    1.249   .     S
O394   Sr485   2.542   .     S
O394   Sr483   2.762   .     S
O395   C399    1.261   .     S
O396   H397    0.820   .     S
O396   C402    1.297   .     S
O398   Sr488   2.485   .     S
O398   C402    1.222   .     S
C399   C400    1.487   .     S
C400   C401    1.375   .     S
C401   C402    1.478   .     S
C403   C404    1.470   .     S
C404   C405    1.388   .     S
C404   C411    1.395   .     S
C405   H406    0.931   .     S
C405   C407    1.389   .     S
C407   H408    0.929   .     S
C407   C409    1.392   .     S
C409   C410    1.394   .     S
C409   C413    1.513   .     S
C410   C417    1.505   .     S
C410   C411    1.401   .     S
C411   H412    0.930   .     S
C413   H414    0.960   .     S
C413   H415    0.960   .     S
C413   H416    0.961   .     S
C417   H418    0.960   .     S
C417   H419    0.961   .     S
C417   H420    0.959   .     S
N421   H422    0.860   .     S
N421   C430    1.367   .     S
N421   C433    1.360   .     S
N423   Sr488   2.746   .     S
N423   C431    1.381   .     S
N423   C433    1.333   .     S
O424   C429    1.249   .     S
O424   Sr485   2.542   1_655 S
O424   Sr483   2.762   1_655 S
O425   C429    1.261   .     S
O426   H427    0.820   .     S
O426   C432    1.297   .     S
O428   Sr488   2.485   .     S
O428   C432    1.222   .     S
C429   C430    1.487   .     S
C430   C431    1.375   .     S
C431   C432    1.478   .     S
C433   C434    1.470   .     S
C434   C435    1.388   .     S
C434   C441    1.395   .     S
C435   H436    0.931   .     S
C435   C437    1.389   1_545 S
C437   C435    1.389   1_565 S
C437   H438    0.929   .     S
C437   C439    1.392   .     S
C439   C440    1.394   .     S
C439   C443    1.513   .     S
C440   C447    1.505   .     S
C440   C441    1.401   1_565 S
C441   H442    0.930   .     S
C441   C440    1.401   1_545 S
C443   H444    0.960   .     S
C443   H445    0.960   .     S
C443   H446    0.961   .     S
C447   H448    0.960   .     S
C447   H449    0.961   .     S
C447   H450    0.959   .     S
N451   H452    0.860   .     S
N451   C460    1.367   .     S
N451   C463    1.360   .     S
N453   Sr487   2.746   .     S
N453   C461    1.381   .     S
N453   C463    1.333   .     S
O454   C459    1.249   .     S
O454   Sr486   2.542   .     S
O454   Sr484   2.762   .     S
O455   C459    1.261   .     S
O456   H457    0.820   .     S
O456   C462    1.297   .     S
O458   Sr487   2.485   .     S
O458   C462    1.222   .     S
C459   C460    1.487   .     S
C460   C461    1.375   .     S
C461   C462    1.478   .     S
C463   C464    1.470   .     S
C464   C465    1.388   .     S
C464   C471    1.395   .     S
C465   H466    0.931   .     S
C465   C467    1.389   .     S
C467   H468    0.929   .     S
C467   C469    1.392   .     S
C469   C470    1.394   .     S
C469   C473    1.513   .     S
C470   C477    1.505   1_455 S
C470   C471    1.401   .     S
C471   H472    0.930   .     S
C473   H474    0.960   .     S
C473   H475    0.960   .     S
C473   H476    0.961   .     S
C477   C470    1.505   1_655 S
C477   H478    0.960   .     S
C477   H479    0.961   .     S
C477   H480    0.959   .     S
Sr481  N3      2.746   1_455 S
Sr481  O98     2.485   1_455 S
Sr481  O154    2.542   1_455 S
Sr481  O334    2.762   1_455 S
Sr482  N63     2.746   1_556 S
Sr482  N33     2.746   1_556 S
Sr482  O68     2.485   1_556 S
Sr482  O38     2.485   1_556 S
Sr483  N213    2.746   1_455 S
Sr483  O218    2.485   1_455 S
Sr483  O4      2.542   1_455 S
Sr483  O424    2.762   1_455 S
Sr485  N333    2.746   1_455 S
Sr485  O248    2.485   1_455 S
Sr485  O424    2.542   1_455 S
Sr485  O4      2.762   1_455 S
Sr486  N303    2.746   1_554 S
Sr486  N273    2.746   1_554 S
Sr486  O308    2.485   1_554 S
Sr486  O278    2.485   1_554 S
Sr487  N363    2.746   1_455 S
Sr487  O368    2.485   1_455 S
Sr487  O334    2.542   1_455 S
Sr487  O154    2.762   1_455 S
