data_QEWYID_FSR
_audit_creation_date              2024-06-11
_audit_creation_method            'Materials Studio'
_symmetry_space_group_name_H-M    'P1'
_symmetry_Int_Tables_number       1
_symmetry_cell_setting            triclinic
loop_
_symmetry_equiv_pos_as_xyz
  x,y,z
_cell_length_a                    14.3715
_cell_length_b                    14.3715
_cell_length_c                    19.7210
_cell_angle_alpha                 90.0000
_cell_angle_beta                  90.0000
_cell_angle_gamma                 90.0000
loop_
_atom_site_label
_atom_site_type_symbol
_atom_site_fract_x
_atom_site_fract_y
_atom_site_fract_z
_atom_site_U_iso_or_equiv
_atom_site_adp_type
_atom_site_occupancy
C1     C     0.31700   0.28970   0.40380   0.04300  Uani   1.00
H2     H     0.33970   0.24840   0.43610   0.05200  Uiso   1.00
C3     C     0.29600   0.35980   0.30890   0.03037  Uani   1.00
C4     C     0.23890   0.39890   0.35630   0.03100  Uani   1.00
C5     C     0.31380   0.37430   0.23759   0.03000  Uani   1.00
C6     C     0.17340   0.47570   0.35621   0.02793  Uani   1.00
N7     N     0.25310   0.35490   0.41765   0.04023  Uani   1.00
N8     N     0.34520   0.28960   0.33910   0.03623  Uani   1.00
N9     N     0.37300   0.31950   0.20606   0.04400  Uani   1.00
N10    N     0.37340   0.34870   0.14080   0.06000  Uani   1.00
N11    N     0.31730   0.41930   0.13386   0.05067  Uani   1.00
N12    N     0.27790   0.43750   0.19529   0.03373  Uani   1.00
N13    N     0.14740   0.53020   0.30578   0.02750  Uani   1.00
N14    N     0.08900   0.59280   0.33487   0.03003  Uani   1.00
N15    N     0.08020   0.57550   0.39968   0.03490  Uani   1.00
N16    N     0.13280   0.50100   0.41458   0.03183  Uani   1.00
H17    H     0.05400   0.29300   0.46300   0.09200  Uiso   1.00
H18    H     0.32600   0.55000   0.53700   0.14400  Uiso   1.00
Zn19   Zn    0.21814   0.55904   0.21569   0.02803  Uani   1.00
C20    C     0.68300   0.71030   0.40380   0.04300  Uani   1.00
H21    H     0.66030   0.75160   0.43610   0.05200  Uiso   1.00
C22    C     0.70400   0.64020   0.30890   0.03037  Uani   1.00
C23    C     0.76110   0.60110   0.35630   0.03100  Uani   1.00
C24    C     0.68620   0.62570   0.23759   0.03000  Uani   1.00
C25    C     0.82660   0.52430   0.35621   0.02793  Uani   1.00
N26    N     0.74690   0.64510   0.41765   0.04023  Uani   1.00
N27    N     0.65480   0.71040   0.33910   0.03623  Uani   1.00
N28    N     0.62700   0.68050   0.20606   0.04400  Uani   1.00
N29    N     0.62660   0.65130   0.14080   0.06000  Uani   1.00
N30    N     0.68270   0.58070   0.13386   0.05067  Uani   1.00
N31    N     0.72210   0.56250   0.19529   0.03373  Uani   1.00
N32    N     0.85260   0.46980   0.30578   0.02750  Uani   1.00
N33    N     0.91100   0.40720   0.33487   0.03003  Uani   1.00
N34    N     0.91980   0.42450   0.39968   0.03490  Uani   1.00
N35    N     0.86720   0.49900   0.41458   0.03183  Uani   1.00
H36    H     0.94600   0.70700   0.46300   0.09200  Uiso   1.00
H37    H     0.67400   0.45000   0.53700   0.14400  Uiso   1.00
Zn38   Zn    0.78186   0.44096   0.21569   0.02803  Uani   1.00
C39    C     0.71030   0.31700   0.90380   0.04300  Uani   1.00
H40    H     0.75160   0.33970   0.93610   0.05200  Uiso   1.00
C41    C     0.64020   0.29600   0.80890   0.03037  Uani   1.00
C42    C     0.60110   0.23890   0.85630   0.03100  Uani   1.00
C43    C     0.62570   0.31380   0.73759   0.03000  Uani   1.00
C44    C     0.52430   0.17340   0.85621   0.02793  Uani   1.00
N45    N     0.64510   0.25310   0.91765   0.04023  Uani   1.00
N46    N     0.71040   0.34520   0.83910   0.03623  Uani   1.00
N47    N     0.68050   0.37300   0.70606   0.04400  Uani   1.00
N48    N     0.65130   0.37340   0.64080   0.06000  Uani   1.00
N49    N     0.58070   0.31730   0.63386   0.05067  Uani   1.00
N50    N     0.56250   0.27790   0.69529   0.03373  Uani   1.00
N51    N     0.46980   0.14740   0.80578   0.02750  Uani   1.00
N52    N     0.40720   0.08900   0.83487   0.03003  Uani   1.00
N53    N     0.42450   0.08020   0.89968   0.03490  Uani   1.00
N54    N     0.49900   0.13280   0.91458   0.03183  Uani   1.00
H55    H     0.70700   0.05400   0.96300   0.09200  Uiso   1.00
H56    H     0.45000   0.32600   0.03700   0.14400  Uiso   1.00
Zn57   Zn    0.44096   0.21814   0.71569   0.02803  Uani   1.00
C58    C     0.28970   0.68300   0.90380   0.04300  Uani   1.00
H59    H     0.24840   0.66030   0.93610   0.05200  Uiso   1.00
C60    C     0.35980   0.70400   0.80890   0.03037  Uani   1.00
C61    C     0.39890   0.76110   0.85630   0.03100  Uani   1.00
C62    C     0.37430   0.68620   0.73759   0.03000  Uani   1.00
C63    C     0.47570   0.82660   0.85621   0.02793  Uani   1.00
N64    N     0.35490   0.74690   0.91765   0.04023  Uani   1.00
N65    N     0.28960   0.65480   0.83910   0.03623  Uani   1.00
N66    N     0.31950   0.62700   0.70606   0.04400  Uani   1.00
N67    N     0.34870   0.62660   0.64080   0.06000  Uani   1.00
N68    N     0.41930   0.68270   0.63386   0.05067  Uani   1.00
N69    N     0.43750   0.72210   0.69529   0.03373  Uani   1.00
N70    N     0.53020   0.85260   0.80578   0.02750  Uani   1.00
N71    N     0.59280   0.91100   0.83487   0.03003  Uani   1.00
N72    N     0.57550   0.91980   0.89968   0.03490  Uani   1.00
N73    N     0.50100   0.86720   0.91458   0.03183  Uani   1.00
H74    H     0.29300   0.94600   0.96300   0.09200  Uiso   1.00
H75    H     0.55000   0.67400   0.03700   0.14400  Uiso   1.00
Zn76   Zn    0.55904   0.78186   0.71569   0.02803  Uani   1.00
C77    C     0.18300   0.78970   0.59620   0.04300  Uani   1.00
H78    H     0.16030   0.74840   0.56390   0.05200  Uiso   1.00
C79    C     0.20400   0.85980   0.69110   0.03037  Uani   1.00
C80    C     0.26110   0.89890   0.64370   0.03100  Uani   1.00
C81    C     0.18620   0.87430   0.76241   0.03000  Uani   1.00
C82    C     0.32660   0.97570   0.64379   0.02793  Uani   1.00
N83    N     0.24690   0.85490   0.58235   0.04023  Uani   1.00
N84    N     0.15480   0.78960   0.66090   0.03623  Uani   1.00
N85    N     0.12700   0.81950   0.79394   0.04400  Uani   1.00
N86    N     0.12660   0.84870   0.85920   0.06000  Uani   1.00
N87    N     0.18270   0.91930   0.86614   0.05067  Uani   1.00
N88    N     0.22210   0.93750   0.80471   0.03373  Uani   1.00
N89    N     0.35260   0.03020   0.69422   0.02750  Uani   1.00
N90    N     0.41100   0.09280   0.66513   0.03003  Uani   1.00
N91    N     0.41980   0.07550   0.60032   0.03490  Uani   1.00
N92    N     0.36720   0.00100   0.58542   0.03183  Uani   1.00
H93    H     0.44600   0.79300   0.53700   0.09200  Uiso   1.00
H94    H     0.17400   0.05000   0.46300   0.14400  Uiso   1.00
Zn95   Zn    0.28186   0.05904   0.78431   0.02803  Uani   1.00
C96    C     0.81700   0.21030   0.59620   0.04300  Uani   1.00
H97    H     0.83970   0.25160   0.56390   0.05200  Uiso   1.00
C98    C     0.79600   0.14020   0.69110   0.03037  Uani   1.00
C99    C     0.73890   0.10110   0.64370   0.03100  Uani   1.00
C100   C     0.81380   0.12570   0.76241   0.03000  Uani   1.00
C101   C     0.67340   0.02430   0.64379   0.02793  Uani   1.00
N102   N     0.75310   0.14510   0.58235   0.04023  Uani   1.00
N103   N     0.84520   0.21040   0.66090   0.03623  Uani   1.00
N104   N     0.87300   0.18050   0.79394   0.04400  Uani   1.00
N105   N     0.87340   0.15130   0.85920   0.06000  Uani   1.00
N106   N     0.81730   0.08070   0.86614   0.05067  Uani   1.00
N107   N     0.77790   0.06250   0.80471   0.03373  Uani   1.00
N108   N     0.64740   0.96980   0.69422   0.02750  Uani   1.00
N109   N     0.58900   0.90720   0.66513   0.03003  Uani   1.00
N110   N     0.58020   0.92450   0.60032   0.03490  Uani   1.00
N111   N     0.63280   0.99900   0.58542   0.03183  Uani   1.00
H112   H     0.55400   0.20700   0.53700   0.09200  Uiso   1.00
H113   H     0.82600   0.95000   0.46300   0.14400  Uiso   1.00
Zn114  Zn    0.71814   0.94096   0.78431   0.02803  Uani   1.00
C115   C     0.78970   0.81700   0.09620   0.04300  Uani   1.00
H116   H     0.74840   0.83970   0.06390   0.05200  Uiso   1.00
C117   C     0.85980   0.79600   0.19110   0.03037  Uani   1.00
C118   C     0.89890   0.73890   0.14370   0.03100  Uani   1.00
C119   C     0.87430   0.81380   0.26241   0.03000  Uani   1.00
C120   C     0.97570   0.67340   0.14379   0.02793  Uani   1.00
N121   N     0.85490   0.75310   0.08235   0.04023  Uani   1.00
N122   N     0.78960   0.84520   0.16090   0.03623  Uani   1.00
N123   N     0.81950   0.87300   0.29394   0.04400  Uani   1.00
N124   N     0.84870   0.87340   0.35920   0.06000  Uani   1.00
N125   N     0.91930   0.81730   0.36614   0.05067  Uani   1.00
N126   N     0.93750   0.77790   0.30471   0.03373  Uani   1.00
N127   N     0.03020   0.64740   0.19422   0.02750  Uani   1.00
N128   N     0.09280   0.58900   0.16513   0.03003  Uani   1.00
N129   N     0.07550   0.58020   0.10032   0.03490  Uani   1.00
N130   N     0.00100   0.63280   0.08542   0.03183  Uani   1.00
H131   H     0.79300   0.55400   0.03700   0.09200  Uiso   1.00
H132   H     0.05000   0.82600   0.96300   0.14400  Uiso   1.00
Zn133  Zn    0.05904   0.71814   0.28431   0.02803  Uani   1.00
C134   C     0.21030   0.18300   0.09620   0.04300  Uani   1.00
H135   H     0.25160   0.16030   0.06390   0.05200  Uiso   1.00
C136   C     0.14020   0.20400   0.19110   0.03037  Uani   1.00
C137   C     0.10110   0.26110   0.14370   0.03100  Uani   1.00
C138   C     0.12570   0.18620   0.26241   0.03000  Uani   1.00
C139   C     0.02430   0.32660   0.14379   0.02793  Uani   1.00
N140   N     0.14510   0.24690   0.08235   0.04023  Uani   1.00
N141   N     0.21040   0.15480   0.16090   0.03623  Uani   1.00
N142   N     0.18050   0.12700   0.29394   0.04400  Uani   1.00
N143   N     0.15130   0.12660   0.35920   0.06000  Uani   1.00
N144   N     0.08070   0.18270   0.36614   0.05067  Uani   1.00
N145   N     0.06250   0.22210   0.30471   0.03373  Uani   1.00
N146   N     0.96980   0.35260   0.19422   0.02750  Uani   1.00
N147   N     0.90720   0.41100   0.16513   0.03003  Uani   1.00
N148   N     0.92450   0.41980   0.10032   0.03490  Uani   1.00
N149   N     0.99900   0.36720   0.08542   0.03183  Uani   1.00
H150   H     0.20700   0.44600   0.03700   0.09200  Uiso   1.00
H151   H     0.95000   0.17400   0.96300   0.14400  Uiso   1.00
Zn152  Zn    0.94096   0.28186   0.28431   0.02803  Uani   1.00
C153   C     0.68300   0.71030   0.59620   0.04300  Uani   1.00
H154   H     0.66030   0.75160   0.56390   0.05200  Uiso   1.00
C155   C     0.70400   0.64020   0.69110   0.03037  Uani   1.00
C156   C     0.76110   0.60110   0.64370   0.03100  Uani   1.00
C157   C     0.68620   0.62570   0.76241   0.03000  Uani   1.00
C158   C     0.82660   0.52430   0.64379   0.02793  Uani   1.00
N159   N     0.74690   0.64510   0.58235   0.04023  Uani   1.00
N160   N     0.65480   0.71040   0.66090   0.03623  Uani   1.00
N161   N     0.62700   0.68050   0.79394   0.04400  Uani   1.00
N162   N     0.62660   0.65130   0.85920   0.06000  Uani   1.00
N163   N     0.68270   0.58070   0.86614   0.05067  Uani   1.00
N164   N     0.72210   0.56250   0.80471   0.03373  Uani   1.00
N165   N     0.85260   0.46980   0.69422   0.02750  Uani   1.00
N166   N     0.91100   0.40720   0.66513   0.03003  Uani   1.00
N167   N     0.91980   0.42450   0.60032   0.03490  Uani   1.00
N168   N     0.86720   0.49900   0.58542   0.03183  Uani   1.00
H169   H     0.94600   0.70700   0.53700   0.09200  Uiso   1.00
H170   H     0.67400   0.45000   0.46300   0.14400  Uiso   1.00
Zn171  Zn    0.78186   0.44096   0.78431   0.02803  Uani   1.00
C172   C     0.31700   0.28970   0.59620   0.04300  Uani   1.00
H173   H     0.33970   0.24840   0.56390   0.05200  Uiso   1.00
C174   C     0.29600   0.35980   0.69110   0.03037  Uani   1.00
C175   C     0.23890   0.39890   0.64370   0.03100  Uani   1.00
C176   C     0.31380   0.37430   0.76241   0.03000  Uani   1.00
C177   C     0.17340   0.47570   0.64379   0.02793  Uani   1.00
N178   N     0.25310   0.35490   0.58235   0.04023  Uani   1.00
N179   N     0.34520   0.28960   0.66090   0.03623  Uani   1.00
N180   N     0.37300   0.31950   0.79394   0.04400  Uani   1.00
N181   N     0.37340   0.34870   0.85920   0.06000  Uani   1.00
N182   N     0.31730   0.41930   0.86614   0.05067  Uani   1.00
N183   N     0.27790   0.43750   0.80471   0.03373  Uani   1.00
N184   N     0.14740   0.53020   0.69422   0.02750  Uani   1.00
N185   N     0.08900   0.59280   0.66513   0.03003  Uani   1.00
N186   N     0.08020   0.57550   0.60032   0.03490  Uani   1.00
N187   N     0.13280   0.50100   0.58542   0.03183  Uani   1.00
H188   H     0.05400   0.29300   0.53700   0.09200  Uiso   1.00
H189   H     0.32600   0.55000   0.46300   0.14400  Uiso   1.00
Zn190  Zn    0.21814   0.55904   0.78431   0.02803  Uani   1.00
C191   C     0.28970   0.68300   0.09620   0.04300  Uani   1.00
H192   H     0.24840   0.66030   0.06390   0.05200  Uiso   1.00
C193   C     0.35980   0.70400   0.19110   0.03037  Uani   1.00
C194   C     0.39890   0.76110   0.14370   0.03100  Uani   1.00
C195   C     0.37430   0.68620   0.26241   0.03000  Uani   1.00
C196   C     0.47570   0.82660   0.14379   0.02793  Uani   1.00
N197   N     0.35490   0.74690   0.08235   0.04023  Uani   1.00
N198   N     0.28960   0.65480   0.16090   0.03623  Uani   1.00
N199   N     0.31950   0.62700   0.29394   0.04400  Uani   1.00
N200   N     0.34870   0.62660   0.35920   0.06000  Uani   1.00
N201   N     0.41930   0.68270   0.36614   0.05067  Uani   1.00
N202   N     0.43750   0.72210   0.30471   0.03373  Uani   1.00
N203   N     0.53020   0.85260   0.19422   0.02750  Uani   1.00
N204   N     0.59280   0.91100   0.16513   0.03003  Uani   1.00
N205   N     0.57550   0.91980   0.10032   0.03490  Uani   1.00
N206   N     0.50100   0.86720   0.08542   0.03183  Uani   1.00
H207   H     0.29300   0.94600   0.03700   0.09200  Uiso   1.00
H208   H     0.55000   0.67400   0.96300   0.14400  Uiso   1.00
Zn209  Zn    0.55904   0.78186   0.28431   0.02803  Uani   1.00
C210   C     0.71030   0.31700   0.09620   0.04300  Uani   1.00
H211   H     0.75160   0.33970   0.06390   0.05200  Uiso   1.00
C212   C     0.64020   0.29600   0.19110   0.03037  Uani   1.00
C213   C     0.60110   0.23890   0.14370   0.03100  Uani   1.00
C214   C     0.62570   0.31380   0.26241   0.03000  Uani   1.00
C215   C     0.52430   0.17340   0.14379   0.02793  Uani   1.00
N216   N     0.64510   0.25310   0.08235   0.04023  Uani   1.00
N217   N     0.71040   0.34520   0.16090   0.03623  Uani   1.00
N218   N     0.68050   0.37300   0.29394   0.04400  Uani   1.00
N219   N     0.65130   0.37340   0.35920   0.06000  Uani   1.00
N220   N     0.58070   0.31730   0.36614   0.05067  Uani   1.00
N221   N     0.56250   0.27790   0.30471   0.03373  Uani   1.00
N222   N     0.46980   0.14740   0.19422   0.02750  Uani   1.00
N223   N     0.40720   0.08900   0.16513   0.03003  Uani   1.00
N224   N     0.42450   0.08020   0.10032   0.03490  Uani   1.00
N225   N     0.49900   0.13280   0.08542   0.03183  Uani   1.00
H226   H     0.70700   0.05400   0.03700   0.09200  Uiso   1.00
H227   H     0.45000   0.32600   0.96300   0.14400  Uiso   1.00
Zn228  Zn    0.44096   0.21814   0.28431   0.02803  Uani   1.00
C229   C     0.81700   0.21030   0.40380   0.04300  Uani   1.00
H230   H     0.83970   0.25160   0.43610   0.05200  Uiso   1.00
C231   C     0.79600   0.14020   0.30890   0.03037  Uani   1.00
C232   C     0.73890   0.10110   0.35630   0.03100  Uani   1.00
C233   C     0.81380   0.12570   0.23759   0.03000  Uani   1.00
C234   C     0.67340   0.02430   0.35621   0.02793  Uani   1.00
N235   N     0.75310   0.14510   0.41765   0.04023  Uani   1.00
N236   N     0.84520   0.21040   0.33910   0.03623  Uani   1.00
N237   N     0.87300   0.18050   0.20606   0.04400  Uani   1.00
N238   N     0.87340   0.15130   0.14080   0.06000  Uani   1.00
N239   N     0.81730   0.08070   0.13386   0.05067  Uani   1.00
N240   N     0.77790   0.06250   0.19529   0.03373  Uani   1.00
N241   N     0.64740   0.96980   0.30578   0.02750  Uani   1.00
N242   N     0.58900   0.90720   0.33487   0.03003  Uani   1.00
N243   N     0.58020   0.92450   0.39968   0.03490  Uani   1.00
N244   N     0.63280   0.99900   0.41458   0.03183  Uani   1.00
H245   H     0.55400   0.20700   0.46300   0.09200  Uiso   1.00
H246   H     0.82600   0.95000   0.53700   0.14400  Uiso   1.00
Zn247  Zn    0.71814   0.94096   0.21569   0.02803  Uani   1.00
C248   C     0.18300   0.78970   0.40380   0.04300  Uani   1.00
H249   H     0.16030   0.74840   0.43610   0.05200  Uiso   1.00
C250   C     0.20400   0.85980   0.30890   0.03037  Uani   1.00
C251   C     0.26110   0.89890   0.35630   0.03100  Uani   1.00
C252   C     0.18620   0.87430   0.23759   0.03000  Uani   1.00
C253   C     0.32660   0.97570   0.35621   0.02793  Uani   1.00
N254   N     0.24690   0.85490   0.41765   0.04023  Uani   1.00
N255   N     0.15480   0.78960   0.33910   0.03623  Uani   1.00
N256   N     0.12700   0.81950   0.20606   0.04400  Uani   1.00
N257   N     0.12660   0.84870   0.14080   0.06000  Uani   1.00
N258   N     0.18270   0.91930   0.13386   0.05067  Uani   1.00
N259   N     0.22210   0.93750   0.19529   0.03373  Uani   1.00
N260   N     0.35260   0.03020   0.30578   0.02750  Uani   1.00
N261   N     0.41100   0.09280   0.33487   0.03003  Uani   1.00
N262   N     0.41980   0.07550   0.39968   0.03490  Uani   1.00
N263   N     0.36720   0.00100   0.41458   0.03183  Uani   1.00
H264   H     0.44600   0.79300   0.46300   0.09200  Uiso   1.00
H265   H     0.17400   0.05000   0.53700   0.14400  Uiso   1.00
Zn266  Zn    0.28186   0.05904   0.21569   0.02803  Uani   1.00
C267   C     0.21030   0.18300   0.90380   0.04300  Uani   1.00
H268   H     0.25160   0.16030   0.93610   0.05200  Uiso   1.00
C269   C     0.14020   0.20400   0.80890   0.03037  Uani   1.00
C270   C     0.10110   0.26110   0.85630   0.03100  Uani   1.00
C271   C     0.12570   0.18620   0.73759   0.03000  Uani   1.00
C272   C     0.02430   0.32660   0.85621   0.02793  Uani   1.00
N273   N     0.14510   0.24690   0.91765   0.04023  Uani   1.00
N274   N     0.21040   0.15480   0.83910   0.03623  Uani   1.00
N275   N     0.18050   0.12700   0.70606   0.04400  Uani   1.00
N276   N     0.15130   0.12660   0.64080   0.06000  Uani   1.00
N277   N     0.08070   0.18270   0.63386   0.05067  Uani   1.00
N278   N     0.06250   0.22210   0.69529   0.03373  Uani   1.00
N279   N     0.96980   0.35260   0.80578   0.02750  Uani   1.00
N280   N     0.90720   0.41100   0.83487   0.03003  Uani   1.00
N281   N     0.92450   0.41980   0.89968   0.03490  Uani   1.00
N282   N     0.99900   0.36720   0.91458   0.03183  Uani   1.00
H283   H     0.20700   0.44600   0.96300   0.09200  Uiso   1.00
H284   H     0.95000   0.17400   0.03700   0.14400  Uiso   1.00
Zn285  Zn    0.94096   0.28186   0.71569   0.02803  Uani   1.00
C286   C     0.78970   0.81700   0.90380   0.04300  Uani   1.00
H287   H     0.74840   0.83970   0.93610   0.05200  Uiso   1.00
C288   C     0.85980   0.79600   0.80890   0.03037  Uani   1.00
C289   C     0.89890   0.73890   0.85630   0.03100  Uani   1.00
C290   C     0.87430   0.81380   0.73759   0.03000  Uani   1.00
C291   C     0.97570   0.67340   0.85621   0.02793  Uani   1.00
N292   N     0.85490   0.75310   0.91765   0.04023  Uani   1.00
N293   N     0.78960   0.84520   0.83910   0.03623  Uani   1.00
N294   N     0.81950   0.87300   0.70606   0.04400  Uani   1.00
N295   N     0.84870   0.87340   0.64080   0.06000  Uani   1.00
N296   N     0.91930   0.81730   0.63386   0.05067  Uani   1.00
N297   N     0.93750   0.77790   0.69529   0.03373  Uani   1.00
N298   N     0.03020   0.64740   0.80578   0.02750  Uani   1.00
N299   N     0.09280   0.58900   0.83487   0.03003  Uani   1.00
N300   N     0.07550   0.58020   0.89968   0.03490  Uani   1.00
N301   N     0.00100   0.63280   0.91458   0.03183  Uani   1.00
H302   H     0.79300   0.55400   0.96300   0.09200  Uiso   1.00
H303   H     0.05000   0.82600   0.03700   0.14400  Uiso   1.00
Zn304  Zn    0.05904   0.71814   0.71569   0.02803  Uani   1.00
O305   O     0.06610   0.32510   0.50000   0.06167  Uani   1.00
O306   O     0.30090   0.53080   0.50000   0.09633  Uani   1.00
Zn307  Zn    0.18293   0.41230   0.50000   0.04127  Uani   1.00
O308   O     0.93390   0.67490   0.50000   0.06167  Uani   1.00
O309   O     0.69910   0.46920   0.50000   0.09633  Uani   1.00
Zn310  Zn    0.81707   0.58770   0.50000   0.04127  Uani   1.00
O311   O     0.67490   0.06610   0.00000   0.06167  Uani   1.00
O312   O     0.46920   0.30090   0.00000   0.09633  Uani   1.00
Zn313  Zn    0.58770   0.18293   0.00000   0.04127  Uani   1.00
O314   O     0.32510   0.93390   0.00000   0.06167  Uani   1.00
O315   O     0.53080   0.69910   0.00000   0.09633  Uani   1.00
Zn316  Zn    0.41230   0.81707   0.00000   0.04127  Uani   1.00
O317   O     0.43390   0.82510   0.50000   0.06167  Uani   1.00
O318   O     0.19910   0.03080   0.50000   0.09633  Uani   1.00
Zn319  Zn    0.31707   0.91230   0.50000   0.04127  Uani   1.00
O320   O     0.56610   0.17490   0.50000   0.06167  Uani   1.00
O321   O     0.80090   0.96920   0.50000   0.09633  Uani   1.00
Zn322  Zn    0.68293   0.08770   0.50000   0.04127  Uani   1.00
O323   O     0.82510   0.56610  -0.00000   0.06167  Uani   1.00
O324   O     0.03080   0.80090  -0.00000   0.09633  Uani   1.00
Zn325  Zn    0.91230   0.68293  -0.00000   0.04127  Uani   1.00
O326   O     0.17490   0.43390  -0.00000   0.06167  Uani   1.00
O327   O     0.96920   0.19910  -0.00000   0.09633  Uani   1.00
Zn328  Zn    0.08770   0.31707  -0.00000   0.04127  Uani   1.00
loop_
_atom_site_aniso_label
_atom_site_aniso_U_11
_atom_site_aniso_U_22
_atom_site_aniso_U_33
_atom_site_aniso_U_12
_atom_site_aniso_U_13
_atom_site_aniso_U_23
C1        0.04400   0.03600   0.04900   0.01580   0.01000   0.01290
C3        0.02700   0.02210   0.04200  -0.00150   0.00250   0.00140
C4        0.02700   0.02400   0.04200   0.00310   0.00190   0.00140
C5        0.02800   0.02300   0.03900   0.00260  -0.00260  -0.00320
C6        0.02280   0.02600   0.03500  -0.00220   0.00200   0.00170
N7        0.03900   0.03470   0.04700   0.01070   0.00550   0.00740
N8        0.03430   0.02740   0.04700   0.00760   0.00570   0.00690
N9        0.05000   0.04200   0.04000   0.01850  -0.00220  -0.01040
N10       0.06400   0.07400   0.04200   0.03400   0.00100  -0.01600
N11       0.05800   0.06000   0.03400   0.02400   0.00230  -0.00840
N12       0.03590   0.03170   0.03360   0.00530   0.00150  -0.00420
N13       0.02270   0.02150   0.03830  -0.00190   0.00380  -0.00180
N14       0.02820   0.02020   0.04170   0.00030   0.00470  -0.00200
N15       0.03620   0.02650   0.04200   0.00510   0.00290  -0.00190
N16       0.03310   0.02670   0.03570   0.00570   0.00340   0.00310
Zn19      0.02440   0.02570   0.03400   0.00226   0.00504   0.00224
C20       0.04400   0.03600   0.04900   0.01580  -0.01000  -0.01290
C22       0.02700   0.02210   0.04200  -0.00150  -0.00250  -0.00140
C23       0.02700   0.02400   0.04200   0.00310  -0.00190  -0.00140
C24       0.02800   0.02300   0.03900   0.00260   0.00260   0.00320
C25       0.02280   0.02600   0.03500  -0.00220  -0.00200  -0.00170
N26       0.03900   0.03470   0.04700   0.01070  -0.00550  -0.00740
N27       0.03430   0.02740   0.04700   0.00760  -0.00570  -0.00690
N28       0.05000   0.04200   0.04000   0.01850   0.00220   0.01040
N29       0.06400   0.07400   0.04200   0.03400  -0.00100   0.01600
N30       0.05800   0.06000   0.03400   0.02400  -0.00230   0.00840
N31       0.03590   0.03170   0.03360   0.00530  -0.00150   0.00420
N32       0.02270   0.02150   0.03830  -0.00190  -0.00380   0.00180
N33       0.02820   0.02020   0.04170   0.00030  -0.00470   0.00200
N34       0.03620   0.02650   0.04200   0.00510  -0.00290   0.00190
N35       0.03310   0.02670   0.03570   0.00570  -0.00340  -0.00310
Zn38      0.02440   0.02570   0.03400   0.00226  -0.00504  -0.00224
C39       0.03600   0.04400   0.04900  -0.01580  -0.01290   0.01000
C41       0.02210   0.02700   0.04200   0.00150  -0.00140   0.00250
C42       0.02400   0.02700   0.04200  -0.00310  -0.00140   0.00190
C43       0.02300   0.02800   0.03900  -0.00260   0.00320  -0.00260
C44       0.02600   0.02280   0.03500   0.00220  -0.00170   0.00200
N45       0.03470   0.03900   0.04700  -0.01070  -0.00740   0.00550
N46       0.02740   0.03430   0.04700  -0.00760  -0.00690   0.00570
N47       0.04200   0.05000   0.04000  -0.01850   0.01040  -0.00220
N48       0.07400   0.06400   0.04200  -0.03400   0.01600   0.00100
N49       0.06000   0.05800   0.03400  -0.02400   0.00840   0.00230
N50       0.03170   0.03590   0.03360  -0.00530   0.00420   0.00150
N51       0.02150   0.02270   0.03830   0.00190   0.00180   0.00380
N52       0.02020   0.02820   0.04170  -0.00030   0.00200   0.00470
N53       0.02650   0.03620   0.04200  -0.00510   0.00190   0.00290
N54       0.02670   0.03310   0.03570  -0.00570  -0.00310   0.00340
Zn57      0.02570   0.02440   0.03400  -0.00226  -0.00224   0.00504
C58       0.03600   0.04400   0.04900  -0.01580   0.01290  -0.01000
C60       0.02210   0.02700   0.04200   0.00150   0.00140  -0.00250
C61       0.02400   0.02700   0.04200  -0.00310   0.00140  -0.00190
C62       0.02300   0.02800   0.03900  -0.00260  -0.00320   0.00260
C63       0.02600   0.02280   0.03500   0.00220   0.00170  -0.00200
N64       0.03470   0.03900   0.04700  -0.01070   0.00740  -0.00550
N65       0.02740   0.03430   0.04700  -0.00760   0.00690  -0.00570
N66       0.04200   0.05000   0.04000  -0.01850  -0.01040   0.00220
N67       0.07400   0.06400   0.04200  -0.03400  -0.01600  -0.00100
N68       0.06000   0.05800   0.03400  -0.02400  -0.00840  -0.00230
N69       0.03170   0.03590   0.03360  -0.00530  -0.00420  -0.00150
N70       0.02150   0.02270   0.03830   0.00190  -0.00180  -0.00380
N71       0.02020   0.02820   0.04170  -0.00030  -0.00200  -0.00470
N72       0.02650   0.03620   0.04200  -0.00510  -0.00190  -0.00290
N73       0.02670   0.03310   0.03570  -0.00570   0.00310  -0.00340
Zn76      0.02570   0.02440   0.03400  -0.00226   0.00224  -0.00504
C77       0.04400   0.03600   0.04900  -0.01580   0.01000  -0.01290
C79       0.02700   0.02210   0.04200   0.00150   0.00250  -0.00140
C80       0.02700   0.02400   0.04200  -0.00310   0.00190  -0.00140
C81       0.02800   0.02300   0.03900  -0.00260  -0.00260   0.00320
C82       0.02280   0.02600   0.03500   0.00220   0.00200  -0.00170
N83       0.03900   0.03470   0.04700  -0.01070   0.00550  -0.00740
N84       0.03430   0.02740   0.04700  -0.00760   0.00570  -0.00690
N85       0.05000   0.04200   0.04000  -0.01850  -0.00220   0.01040
N86       0.06400   0.07400   0.04200  -0.03400   0.00100   0.01600
N87       0.05800   0.06000   0.03400  -0.02400   0.00230   0.00840
N88       0.03590   0.03170   0.03360  -0.00530   0.00150   0.00420
N89       0.02270   0.02150   0.03830   0.00190   0.00380   0.00180
N90       0.02820   0.02020   0.04170  -0.00030   0.00470   0.00200
N91       0.03620   0.02650   0.04200  -0.00510   0.00290   0.00190
N92       0.03310   0.02670   0.03570  -0.00570   0.00340  -0.00310
Zn95      0.02440   0.02570   0.03400  -0.00226   0.00504  -0.00224
C96       0.04400   0.03600   0.04900  -0.01580  -0.01000   0.01290
C98       0.02700   0.02210   0.04200   0.00150  -0.00250   0.00140
C99       0.02700   0.02400   0.04200  -0.00310  -0.00190   0.00140
C100      0.02800   0.02300   0.03900  -0.00260   0.00260  -0.00320
C101      0.02280   0.02600   0.03500   0.00220  -0.00200   0.00170
N102      0.03900   0.03470   0.04700  -0.01070  -0.00550   0.00740
N103      0.03430   0.02740   0.04700  -0.00760  -0.00570   0.00690
N104      0.05000   0.04200   0.04000  -0.01850   0.00220  -0.01040
N105      0.06400   0.07400   0.04200  -0.03400  -0.00100  -0.01600
N106      0.05800   0.06000   0.03400  -0.02400  -0.00230  -0.00840
N107      0.03590   0.03170   0.03360  -0.00530  -0.00150  -0.00420
N108      0.02270   0.02150   0.03830   0.00190  -0.00380  -0.00180
N109      0.02820   0.02020   0.04170  -0.00030  -0.00470  -0.00200
N110      0.03620   0.02650   0.04200  -0.00510  -0.00290  -0.00190
N111      0.03310   0.02670   0.03570  -0.00570  -0.00340   0.00310
Zn114     0.02440   0.02570   0.03400  -0.00226  -0.00504   0.00224
C115      0.03600   0.04400   0.04900   0.01580  -0.01290  -0.01000
C117      0.02210   0.02700   0.04200  -0.00150  -0.00140  -0.00250
C118      0.02400   0.02700   0.04200   0.00310  -0.00140  -0.00190
C119      0.02300   0.02800   0.03900   0.00260   0.00320   0.00260
C120      0.02600   0.02280   0.03500  -0.00220  -0.00170  -0.00200
N121      0.03470   0.03900   0.04700   0.01070  -0.00740  -0.00550
N122      0.02740   0.03430   0.04700   0.00760  -0.00690  -0.00570
N123      0.04200   0.05000   0.04000   0.01850   0.01040   0.00220
N124      0.07400   0.06400   0.04200   0.03400   0.01600  -0.00100
N125      0.06000   0.05800   0.03400   0.02400   0.00840  -0.00230
N126      0.03170   0.03590   0.03360   0.00530   0.00420  -0.00150
N127      0.02150   0.02270   0.03830  -0.00190   0.00180  -0.00380
N128      0.02020   0.02820   0.04170   0.00030   0.00200  -0.00470
N129      0.02650   0.03620   0.04200   0.00510   0.00190  -0.00290
N130      0.02670   0.03310   0.03570   0.00570  -0.00310  -0.00340
Zn133     0.02570   0.02440   0.03400   0.00226  -0.00224  -0.00504
C134      0.03600   0.04400   0.04900   0.01580   0.01290   0.01000
C136      0.02210   0.02700   0.04200  -0.00150   0.00140   0.00250
C137      0.02400   0.02700   0.04200   0.00310   0.00140   0.00190
C138      0.02300   0.02800   0.03900   0.00260  -0.00320  -0.00260
C139      0.02600   0.02280   0.03500  -0.00220   0.00170   0.00200
N140      0.03470   0.03900   0.04700   0.01070   0.00740   0.00550
N141      0.02740   0.03430   0.04700   0.00760   0.00690   0.00570
N142      0.04200   0.05000   0.04000   0.01850  -0.01040  -0.00220
N143      0.07400   0.06400   0.04200   0.03400  -0.01600   0.00100
N144      0.06000   0.05800   0.03400   0.02400  -0.00840   0.00230
N145      0.03170   0.03590   0.03360   0.00530  -0.00420   0.00150
N146      0.02150   0.02270   0.03830  -0.00190  -0.00180   0.00380
N147      0.02020   0.02820   0.04170   0.00030  -0.00200   0.00470
N148      0.02650   0.03620   0.04200   0.00510  -0.00190   0.00290
N149      0.02670   0.03310   0.03570   0.00570   0.00310   0.00340
Zn152     0.02570   0.02440   0.03400   0.00226   0.00224   0.00504
C153      0.04400   0.03600   0.04900   0.01580   0.01000   0.01290
C155      0.02700   0.02210   0.04200  -0.00150   0.00250   0.00140
C156      0.02700   0.02400   0.04200   0.00310   0.00190   0.00140
C157      0.02800   0.02300   0.03900   0.00260  -0.00260  -0.00320
C158      0.02280   0.02600   0.03500  -0.00220   0.00200   0.00170
N159      0.03900   0.03470   0.04700   0.01070   0.00550   0.00740
N160      0.03430   0.02740   0.04700   0.00760   0.00570   0.00690
N161      0.05000   0.04200   0.04000   0.01850  -0.00220  -0.01040
N162      0.06400   0.07400   0.04200   0.03400   0.00100  -0.01600
N163      0.05800   0.06000   0.03400   0.02400   0.00230  -0.00840
N164      0.03590   0.03170   0.03360   0.00530   0.00150  -0.00420
N165      0.02270   0.02150   0.03830  -0.00190   0.00380  -0.00180
N166      0.02820   0.02020   0.04170   0.00030   0.00470  -0.00200
N167      0.03620   0.02650   0.04200   0.00510   0.00290  -0.00190
N168      0.03310   0.02670   0.03570   0.00570   0.00340   0.00310
Zn171     0.02440   0.02570   0.03400   0.00226   0.00504   0.00224
C172      0.04400   0.03600   0.04900   0.01580  -0.01000  -0.01290
C174      0.02700   0.02210   0.04200  -0.00150  -0.00250  -0.00140
C175      0.02700   0.02400   0.04200   0.00310  -0.00190  -0.00140
C176      0.02800   0.02300   0.03900   0.00260   0.00260   0.00320
C177      0.02280   0.02600   0.03500  -0.00220  -0.00200  -0.00170
N178      0.03900   0.03470   0.04700   0.01070  -0.00550  -0.00740
N179      0.03430   0.02740   0.04700   0.00760  -0.00570  -0.00690
N180      0.05000   0.04200   0.04000   0.01850   0.00220   0.01040
N181      0.06400   0.07400   0.04200   0.03400  -0.00100   0.01600
N182      0.05800   0.06000   0.03400   0.02400  -0.00230   0.00840
N183      0.03590   0.03170   0.03360   0.00530  -0.00150   0.00420
N184      0.02270   0.02150   0.03830  -0.00190  -0.00380   0.00180
N185      0.02820   0.02020   0.04170   0.00030  -0.00470   0.00200
N186      0.03620   0.02650   0.04200   0.00510  -0.00290   0.00190
N187      0.03310   0.02670   0.03570   0.00570  -0.00340  -0.00310
Zn190     0.02440   0.02570   0.03400   0.00226  -0.00504  -0.00224
C191      0.03600   0.04400   0.04900  -0.01580  -0.01290   0.01000
C193      0.02210   0.02700   0.04200   0.00150  -0.00140   0.00250
C194      0.02400   0.02700   0.04200  -0.00310  -0.00140   0.00190
C195      0.02300   0.02800   0.03900  -0.00260   0.00320  -0.00260
C196      0.02600   0.02280   0.03500   0.00220  -0.00170   0.00200
N197      0.03470   0.03900   0.04700  -0.01070  -0.00740   0.00550
N198      0.02740   0.03430   0.04700  -0.00760  -0.00690   0.00570
N199      0.04200   0.05000   0.04000  -0.01850   0.01040  -0.00220
N200      0.07400   0.06400   0.04200  -0.03400   0.01600   0.00100
N201      0.06000   0.05800   0.03400  -0.02400   0.00840   0.00230
N202      0.03170   0.03590   0.03360  -0.00530   0.00420   0.00150
N203      0.02150   0.02270   0.03830   0.00190   0.00180   0.00380
N204      0.02020   0.02820   0.04170  -0.00030   0.00200   0.00470
N205      0.02650   0.03620   0.04200  -0.00510   0.00190   0.00290
N206      0.02670   0.03310   0.03570  -0.00570  -0.00310   0.00340
Zn209     0.02570   0.02440   0.03400  -0.00226  -0.00224   0.00504
C210      0.03600   0.04400   0.04900  -0.01580   0.01290  -0.01000
C212      0.02210   0.02700   0.04200   0.00150   0.00140  -0.00250
C213      0.02400   0.02700   0.04200  -0.00310   0.00140  -0.00190
C214      0.02300   0.02800   0.03900  -0.00260  -0.00320   0.00260
C215      0.02600   0.02280   0.03500   0.00220   0.00170  -0.00200
N216      0.03470   0.03900   0.04700  -0.01070   0.00740  -0.00550
N217      0.02740   0.03430   0.04700  -0.00760   0.00690  -0.00570
N218      0.04200   0.05000   0.04000  -0.01850  -0.01040   0.00220
N219      0.07400   0.06400   0.04200  -0.03400  -0.01600  -0.00100
N220      0.06000   0.05800   0.03400  -0.02400  -0.00840  -0.00230
N221      0.03170   0.03590   0.03360  -0.00530  -0.00420  -0.00150
N222      0.02150   0.02270   0.03830   0.00190  -0.00180  -0.00380
N223      0.02020   0.02820   0.04170  -0.00030  -0.00200  -0.00470
N224      0.02650   0.03620   0.04200  -0.00510  -0.00190  -0.00290
N225      0.02670   0.03310   0.03570  -0.00570   0.00310  -0.00340
Zn228     0.02570   0.02440   0.03400  -0.00226   0.00224  -0.00504
C229      0.04400   0.03600   0.04900  -0.01580   0.01000  -0.01290
C231      0.02700   0.02210   0.04200   0.00150   0.00250  -0.00140
C232      0.02700   0.02400   0.04200  -0.00310   0.00190  -0.00140
C233      0.02800   0.02300   0.03900  -0.00260  -0.00260   0.00320
C234      0.02280   0.02600   0.03500   0.00220   0.00200  -0.00170
N235      0.03900   0.03470   0.04700  -0.01070   0.00550  -0.00740
N236      0.03430   0.02740   0.04700  -0.00760   0.00570  -0.00690
N237      0.05000   0.04200   0.04000  -0.01850  -0.00220   0.01040
N238      0.06400   0.07400   0.04200  -0.03400   0.00100   0.01600
N239      0.05800   0.06000   0.03400  -0.02400   0.00230   0.00840
N240      0.03590   0.03170   0.03360  -0.00530   0.00150   0.00420
N241      0.02270   0.02150   0.03830   0.00190   0.00380   0.00180
N242      0.02820   0.02020   0.04170  -0.00030   0.00470   0.00200
N243      0.03620   0.02650   0.04200  -0.00510   0.00290   0.00190
N244      0.03310   0.02670   0.03570  -0.00570   0.00340  -0.00310
Zn247     0.02440   0.02570   0.03400  -0.00226   0.00504  -0.00224
C248      0.04400   0.03600   0.04900  -0.01580  -0.01000   0.01290
C250      0.02700   0.02210   0.04200   0.00150  -0.00250   0.00140
C251      0.02700   0.02400   0.04200  -0.00310  -0.00190   0.00140
C252      0.02800   0.02300   0.03900  -0.00260   0.00260  -0.00320
C253      0.02280   0.02600   0.03500   0.00220  -0.00200   0.00170
N254      0.03900   0.03470   0.04700  -0.01070  -0.00550   0.00740
N255      0.03430   0.02740   0.04700  -0.00760  -0.00570   0.00690
N256      0.05000   0.04200   0.04000  -0.01850   0.00220  -0.01040
N257      0.06400   0.07400   0.04200  -0.03400  -0.00100  -0.01600
N258      0.05800   0.06000   0.03400  -0.02400  -0.00230  -0.00840
N259      0.03590   0.03170   0.03360  -0.00530  -0.00150  -0.00420
N260      0.02270   0.02150   0.03830   0.00190  -0.00380  -0.00180
N261      0.02820   0.02020   0.04170  -0.00030  -0.00470  -0.00200
N262      0.03620   0.02650   0.04200  -0.00510  -0.00290  -0.00190
N263      0.03310   0.02670   0.03570  -0.00570  -0.00340   0.00310
Zn266     0.02440   0.02570   0.03400  -0.00226  -0.00504   0.00224
C267      0.03600   0.04400   0.04900   0.01580  -0.01290  -0.01000
C269      0.02210   0.02700   0.04200  -0.00150  -0.00140  -0.00250
C270      0.02400   0.02700   0.04200   0.00310  -0.00140  -0.00190
C271      0.02300   0.02800   0.03900   0.00260   0.00320   0.00260
C272      0.02600   0.02280   0.03500  -0.00220  -0.00170  -0.00200
N273      0.03470   0.03900   0.04700   0.01070  -0.00740  -0.00550
N274      0.02740   0.03430   0.04700   0.00760  -0.00690  -0.00570
N275      0.04200   0.05000   0.04000   0.01850   0.01040   0.00220
N276      0.07400   0.06400   0.04200   0.03400   0.01600  -0.00100
N277      0.06000   0.05800   0.03400   0.02400   0.00840  -0.00230
N278      0.03170   0.03590   0.03360   0.00530   0.00420  -0.00150
N279      0.02150   0.02270   0.03830  -0.00190   0.00180  -0.00380
N280      0.02020   0.02820   0.04170   0.00030   0.00200  -0.00470
N281      0.02650   0.03620   0.04200   0.00510   0.00190  -0.00290
N282      0.02670   0.03310   0.03570   0.00570  -0.00310  -0.00340
Zn285     0.02570   0.02440   0.03400   0.00226  -0.00224  -0.00504
C286      0.03600   0.04400   0.04900   0.01580   0.01290   0.01000
C288      0.02210   0.02700   0.04200  -0.00150   0.00140   0.00250
C289      0.02400   0.02700   0.04200   0.00310   0.00140   0.00190
C290      0.02300   0.02800   0.03900   0.00260  -0.00320  -0.00260
C291      0.02600   0.02280   0.03500  -0.00220   0.00170   0.00200
N292      0.03470   0.03900   0.04700   0.01070   0.00740   0.00550
N293      0.02740   0.03430   0.04700   0.00760   0.00690   0.00570
N294      0.04200   0.05000   0.04000   0.01850  -0.01040  -0.00220
N295      0.07400   0.06400   0.04200   0.03400  -0.01600   0.00100
N296      0.06000   0.05800   0.03400   0.02400  -0.00840   0.00230
N297      0.03170   0.03590   0.03360   0.00530  -0.00420   0.00150
N298      0.02150   0.02270   0.03830  -0.00190  -0.00180   0.00380
N299      0.02020   0.02820   0.04170   0.00030  -0.00200   0.00470
N300      0.02650   0.03620   0.04200   0.00510  -0.00190   0.00290
N301      0.02670   0.03310   0.03570   0.00570   0.00310   0.00340
Zn304     0.02570   0.02440   0.03400   0.00226   0.00224   0.00504
O305      0.06600   0.07000   0.04900   0.00100   0.00000   0.00000
O306      0.10100   0.11400   0.07400  -0.04700   0.00000   0.00000
Zn307     0.04640   0.04350   0.03390   0.01460   0.00000   0.00000
O308      0.06600   0.07000   0.04900   0.00100   0.00000   0.00000
O309      0.10100   0.11400   0.07400  -0.04700   0.00000   0.00000
Zn310     0.04640   0.04350   0.03390   0.01460   0.00000   0.00000
O311      0.07000   0.06600   0.04900  -0.00100   0.00000   0.00000
O312      0.11400   0.10100   0.07400   0.04700   0.00000   0.00000
Zn313     0.04350   0.04640   0.03390  -0.01460   0.00000   0.00000
O314      0.07000   0.06600   0.04900  -0.00100   0.00000   0.00000
O315      0.11400   0.10100   0.07400   0.04700   0.00000   0.00000
Zn316     0.04350   0.04640   0.03390  -0.01460   0.00000   0.00000
O317      0.06600   0.07000   0.04900  -0.00100   0.00000   0.00000
O318      0.10100   0.11400   0.07400   0.04700   0.00000   0.00000
Zn319     0.04640   0.04350   0.03390  -0.01460   0.00000   0.00000
O320      0.06600   0.07000   0.04900  -0.00100   0.00000   0.00000
O321      0.10100   0.11400   0.07400   0.04700   0.00000   0.00000
Zn322     0.04640   0.04350   0.03390  -0.01460   0.00000   0.00000
O323      0.07000   0.06600   0.04900   0.00100   0.00000   0.00000
O324      0.11400   0.10100   0.07400  -0.04700   0.00000   0.00000
Zn325     0.04350   0.04640   0.03390   0.01460   0.00000   0.00000
O326      0.07000   0.06600   0.04900   0.00100   0.00000   0.00000
O327      0.11400   0.10100   0.07400  -0.04700   0.00000   0.00000
Zn328     0.04350   0.04640   0.03390   0.01460   0.00000   0.00000
loop_
_geom_bond_atom_site_label_1
_geom_bond_atom_site_label_2
_geom_bond_distance
_geom_bond_site_symmetry_2
_ccdc_geom_bond_type
C1     H2      0.930   .     S
C1     N7      1.340   .     S
C1     N8      1.339   .     S
C3     C4      1.365   .     S
C3     C5      1.444   .     S
C3     N8      1.368   .     S
C4     C6      1.451   .     S
C4     N7      1.380   .     S
C5     N9      1.316   .     S
C5     N12     1.337   .     S
C6     N13     1.320   .     S
C6     N16     1.341   .     S
N7     Zn307   2.082   .     S
N8     Zn228   2.029   .     S
N9     N10     1.354   .     S
N9     Zn228   2.336   .     S
N10    N11     1.303   .     S
N11    N12     1.363   .     S
N12    Zn19    1.988   .     S
N13    N14     1.358   .     S
N13    Zn19    2.089   .     S
N14    N15     1.308   .     S
N14    Zn133   2.103   .     S
N15    N16     1.343   .     S
N16    Zn307   2.232   .     S
H17    O305    0.881   .     S
H18    O306    0.859   .     S
Zn19   N128    2.103   .     S
Zn19   N198    2.029   .     S
Zn19   N199    2.336   .     S
C20    H21     0.930   .     S
C20    N26     1.340   .     S
C20    N27     1.339   .     S
C22    C23     1.365   .     S
C22    C24     1.444   .     S
C22    N27     1.368   .     S
C23    C25     1.451   .     S
C23    N26     1.380   .     S
C24    N28     1.316   .     S
C24    N31     1.337   .     S
C25    N32     1.320   .     S
C25    N35     1.341   .     S
N26    Zn310   2.082   .     S
N27    Zn209   2.029   .     S
N28    N29     1.354   .     S
N28    Zn209   2.336   .     S
N29    N30     1.303   .     S
N30    N31     1.363   .     S
N31    Zn38    1.988   .     S
N32    N33     1.358   .     S
N32    Zn38    2.089   .     S
N33    N34     1.308   .     S
N33    Zn152   2.103   .     S
N34    N35     1.343   .     S
N35    Zn310   2.232   .     S
H36    O308    0.881   .     S
H37    O309    0.859   .     S
Zn38   N147    2.103   .     S
Zn38   N217    2.029   .     S
Zn38   N218    2.336   .     S
C39    H40     0.930   .     S
C39    N45     1.340   .     S
C39    N46     1.339   .     S
C41    C42     1.365   .     S
C41    C43     1.444   .     S
C41    N46     1.368   .     S
C42    C44     1.451   .     S
C42    N45     1.380   .     S
C43    N47     1.316   .     S
C43    N50     1.337   .     S
C44    N51     1.320   .     S
C44    N54     1.341   .     S
N45    Zn313   2.082   1_556 S
N46    Zn171   2.029   .     S
N47    N48     1.354   .     S
N47    Zn171   2.336   .     S
N48    N49     1.303   .     S
N49    N50     1.363   .     S
N50    Zn57    1.988   .     S
N51    N52     1.358   .     S
N51    Zn57    2.089   .     S
N52    N53     1.308   .     S
N52    Zn95    2.103   .     S
N53    N54     1.343   .     S
N54    Zn313   2.232   1_556 S
H55    O311    0.881   1_556 S
H56    O312    0.859   .     S
Zn57   N90     2.103   .     S
Zn57   N179    2.029   .     S
Zn57   N180    2.336   .     S
C58    H59     0.930   .     S
C58    N64     1.340   .     S
C58    N65     1.339   .     S
C60    C61     1.365   .     S
C60    C62     1.444   .     S
C60    N65     1.368   .     S
C61    C63     1.451   .     S
C61    N64     1.380   .     S
C62    N66     1.316   .     S
C62    N69     1.337   .     S
C63    N70     1.320   .     S
C63    N73     1.341   .     S
N64    Zn316   2.082   1_556 S
N65    Zn190   2.029   .     S
N66    N67     1.354   .     S
N66    Zn190   2.336   .     S
N67    N68     1.303   .     S
N68    N69     1.363   .     S
N69    Zn76    1.988   .     S
N70    N71     1.358   .     S
N70    Zn76    2.089   .     S
N71    N72     1.308   .     S
N71    Zn114   2.103   .     S
N72    N73     1.343   .     S
N73    Zn316   2.232   1_556 S
H74    O314    0.881   1_556 S
H75    O315    0.859   .     S
Zn76   N109    2.103   .     S
Zn76   N160    2.029   .     S
Zn76   N161    2.336   .     S
C77    H78     0.930   .     S
C77    N83     1.340   .     S
C77    N84     1.339   .     S
C79    C80     1.365   .     S
C79    C81     1.444   .     S
C79    N84     1.368   .     S
C80    C82     1.451   .     S
C80    N83     1.380   .     S
C81    N85     1.316   .     S
C81    N88     1.337   .     S
C82    N89     1.320   1_565 S
C82    N92     1.341   1_565 S
N83    Zn319   2.082   .     S
N84    Zn304   2.029   .     S
N85    N86     1.354   .     S
N85    Zn304   2.336   .     S
N86    N87     1.303   .     S
N87    N88     1.363   .     S
N88    Zn95    1.988   1_565 S
N89    C82     1.320   1_545 S
N89    N90     1.358   .     S
N89    Zn95    2.089   .     S
N90    N91     1.308   .     S
N91    N92     1.343   .     S
N92    C82     1.341   1_545 S
N92    Zn319   2.232   1_545 S
H93    O317    0.881   .     S
H94    O318    0.859   .     S
Zn95   N88     1.988   1_545 S
Zn95   N274    2.029   .     S
Zn95   N275    2.336   .     S
C96    H97     0.930   .     S
C96    N102    1.340   .     S
C96    N103    1.339   .     S
C98    C99     1.365   .     S
C98    C100    1.444   .     S
C98    N103    1.368   .     S
C99    C101    1.451   .     S
C99    N102    1.380   .     S
C100   N104    1.316   .     S
C100   N107    1.337   .     S
C101   N108    1.320   1_545 S
C101   N111    1.341   1_545 S
N102   Zn322   2.082   .     S
N103   Zn285   2.029   .     S
N104   N105    1.354   .     S
N104   Zn285   2.336   .     S
N105   N106    1.303   .     S
N106   N107    1.363   .     S
N107   Zn114   1.988   1_545 S
N108   C101    1.320   1_565 S
N108   N109    1.358   .     S
N108   Zn114   2.089   .     S
N109   N110    1.308   .     S
N110   N111    1.343   .     S
N111   C101    1.341   1_565 S
N111   Zn322   2.232   1_565 S
H112   O320    0.881   .     S
H113   O321    0.859   .     S
Zn114  N107    1.988   1_565 S
Zn114  N293    2.029   .     S
Zn114  N294    2.336   .     S
C115   H116    0.930   .     S
C115   N121    1.340   .     S
C115   N122    1.339   .     S
C117   C118    1.365   .     S
C117   C119    1.444   .     S
C117   N122    1.368   .     S
C118   C120    1.451   .     S
C118   N121    1.380   .     S
C119   N123    1.316   .     S
C119   N126    1.337   .     S
C120   N127    1.320   1_655 S
C120   N130    1.341   1_655 S
N121   Zn325   2.082   .     S
N122   Zn247   2.029   .     S
N123   N124    1.354   .     S
N123   Zn247   2.336   .     S
N124   N125    1.303   .     S
N125   N126    1.363   .     S
N126   Zn133   1.988   1_655 S
N127   C120    1.320   1_455 S
N127   N128    1.358   .     S
N127   Zn133   2.089   .     S
N128   N129    1.308   .     S
N129   N130    1.343   .     S
N130   C120    1.341   1_455 S
N130   Zn325   2.232   1_455 S
H131   O323    0.881   .     S
H132   O324    0.859   1_556 S
Zn133  N126    1.988   1_455 S
Zn133  N255    2.029   .     S
Zn133  N256    2.336   .     S
C134   H135    0.930   .     S
C134   N140    1.340   .     S
C134   N141    1.339   .     S
C136   C137    1.365   .     S
C136   C138    1.444   .     S
C136   N141    1.368   .     S
C137   C139    1.451   .     S
C137   N140    1.380   .     S
C138   N142    1.316   .     S
C138   N145    1.337   .     S
C139   N146    1.320   1_455 S
C139   N149    1.341   1_455 S
N140   Zn328   2.082   .     S
N141   Zn266   2.029   .     S
N142   N143    1.354   .     S
N142   Zn266   2.336   .     S
N143   N144    1.303   .     S
N144   N145    1.363   .     S
N145   Zn152   1.988   1_455 S
N146   C139    1.320   1_655 S
N146   N147    1.358   .     S
N146   Zn152   2.089   .     S
N147   N148    1.308   .     S
N148   N149    1.343   .     S
N149   C139    1.341   1_655 S
N149   Zn328   2.232   1_655 S
H150   O326    0.881   .     S
H151   O327    0.859   1_556 S
Zn152  N145    1.988   1_655 S
Zn152  N236    2.029   .     S
Zn152  N237    2.336   .     S
C153   H154    0.930   .     S
C153   N159    1.340   .     S
C153   N160    1.339   .     S
C155   C156    1.365   .     S
C155   C157    1.444   .     S
C155   N160    1.368   .     S
C156   C158    1.451   .     S
C156   N159    1.380   .     S
C157   N161    1.316   .     S
C157   N164    1.337   .     S
C158   N165    1.320   .     S
C158   N168    1.341   .     S
N159   Zn310   2.082   .     S
N161   N162    1.354   .     S
N162   N163    1.303   .     S
N163   N164    1.363   .     S
N164   Zn171   1.988   .     S
N165   N166    1.358   .     S
N165   Zn171   2.089   .     S
N166   N167    1.308   .     S
N166   Zn285   2.103   .     S
N167   N168    1.343   .     S
N168   Zn310   2.232   .     S
H169   O308    0.881   .     S
H170   O309    0.859   .     S
Zn171  N280    2.103   .     S
C172   H173    0.930   .     S
C172   N178    1.340   .     S
C172   N179    1.339   .     S
C174   C175    1.365   .     S
C174   C176    1.444   .     S
C174   N179    1.368   .     S
C175   C177    1.451   .     S
C175   N178    1.380   .     S
C176   N180    1.316   .     S
C176   N183    1.337   .     S
C177   N184    1.320   .     S
C177   N187    1.341   .     S
N178   Zn307   2.082   .     S
N180   N181    1.354   .     S
N181   N182    1.303   .     S
N182   N183    1.363   .     S
N183   Zn190   1.988   .     S
N184   N185    1.358   .     S
N184   Zn190   2.089   .     S
N185   N186    1.308   .     S
N185   Zn304   2.103   .     S
N186   N187    1.343   .     S
N187   Zn307   2.232   .     S
H188   O305    0.881   .     S
H189   O306    0.859   .     S
Zn190  N299    2.103   .     S
C191   H192    0.930   .     S
C191   N197    1.340   .     S
C191   N198    1.339   .     S
C193   C194    1.365   .     S
C193   C195    1.444   .     S
C193   N198    1.368   .     S
C194   C196    1.451   .     S
C194   N197    1.380   .     S
C195   N199    1.316   .     S
C195   N202    1.337   .     S
C196   N203    1.320   .     S
C196   N206    1.341   .     S
N197   Zn316   2.082   .     S
N199   N200    1.354   .     S
N200   N201    1.303   .     S
N201   N202    1.363   .     S
N202   Zn209   1.988   .     S
N203   N204    1.358   .     S
N203   Zn209   2.089   .     S
N204   N205    1.308   .     S
N204   Zn247   2.103   .     S
N205   N206    1.343   .     S
N206   Zn316   2.232   .     S
H207   O314    0.881   .     S
H208   O315    0.859   1_556 S
Zn209  N242    2.103   .     S
C210   H211    0.930   .     S
C210   N216    1.340   .     S
C210   N217    1.339   .     S
C212   C213    1.365   .     S
C212   C214    1.444   .     S
C212   N217    1.368   .     S
C213   C215    1.451   .     S
C213   N216    1.380   .     S
C214   N218    1.316   .     S
C214   N221    1.337   .     S
C215   N222    1.320   .     S
C215   N225    1.341   .     S
N216   Zn313   2.082   .     S
N218   N219    1.354   .     S
N219   N220    1.303   .     S
N220   N221    1.363   .     S
N221   Zn228   1.988   .     S
N222   N223    1.358   .     S
N222   Zn228   2.089   .     S
N223   N224    1.308   .     S
N223   Zn266   2.103   .     S
N224   N225    1.343   .     S
N225   Zn313   2.232   .     S
H226   O311    0.881   .     S
H227   O312    0.859   1_556 S
Zn228  N261    2.103   .     S
C229   H230    0.930   .     S
C229   N235    1.340   .     S
C229   N236    1.339   .     S
C231   C232    1.365   .     S
C231   C233    1.444   .     S
C231   N236    1.368   .     S
C232   C234    1.451   .     S
C232   N235    1.380   .     S
C233   N237    1.316   .     S
C233   N240    1.337   .     S
C234   N241    1.320   1_545 S
C234   N244    1.341   1_545 S
N235   Zn322   2.082   .     S
N237   N238    1.354   .     S
N238   N239    1.303   .     S
N239   N240    1.363   .     S
N240   Zn247   1.988   1_545 S
N241   C234    1.320   1_565 S
N241   N242    1.358   .     S
N241   Zn247   2.089   .     S
N242   N243    1.308   .     S
N243   N244    1.343   .     S
N244   C234    1.341   1_565 S
N244   Zn322   2.232   1_565 S
H245   O320    0.881   .     S
H246   O321    0.859   .     S
Zn247  N240    1.988   1_565 S
C248   H249    0.930   .     S
C248   N254    1.340   .     S
C248   N255    1.339   .     S
C250   C251    1.365   .     S
C250   C252    1.444   .     S
C250   N255    1.368   .     S
C251   C253    1.451   .     S
C251   N254    1.380   .     S
C252   N256    1.316   .     S
C252   N259    1.337   .     S
C253   N260    1.320   1_565 S
C253   N263    1.341   1_565 S
N254   Zn319   2.082   .     S
N256   N257    1.354   .     S
N257   N258    1.303   .     S
N258   N259    1.363   .     S
N259   Zn266   1.988   1_565 S
N260   C253    1.320   1_545 S
N260   N261    1.358   .     S
N260   Zn266   2.089   .     S
N261   N262    1.308   .     S
N262   N263    1.343   .     S
N263   C253    1.341   1_545 S
N263   Zn319   2.232   1_545 S
H264   O317    0.881   .     S
H265   O318    0.859   .     S
Zn266  N259    1.988   1_545 S
C267   H268    0.930   .     S
C267   N273    1.340   .     S
C267   N274    1.339   .     S
C269   C270    1.365   .     S
C269   C271    1.444   .     S
C269   N274    1.368   .     S
C270   C272    1.451   .     S
C270   N273    1.380   .     S
C271   N275    1.316   .     S
C271   N278    1.337   .     S
C272   N279    1.320   1_455 S
C272   N282    1.341   1_455 S
N273   Zn328   2.082   1_556 S
N275   N276    1.354   .     S
N276   N277    1.303   .     S
N277   N278    1.363   .     S
N278   Zn285   1.988   1_455 S
N279   C272    1.320   1_655 S
N279   N280    1.358   .     S
N279   Zn285   2.089   .     S
N280   N281    1.308   .     S
N281   N282    1.343   .     S
N282   C272    1.341   1_655 S
N282   Zn328   2.232   1_656 S
H283   O326    0.881   1_556 S
H284   O327    0.859   .     S
Zn285  N278    1.988   1_655 S
C286   H287    0.930   .     S
C286   N292    1.340   .     S
C286   N293    1.339   .     S
C288   C289    1.365   .     S
C288   C290    1.444   .     S
C288   N293    1.368   .     S
C289   C291    1.451   .     S
C289   N292    1.380   .     S
C290   N294    1.316   .     S
C290   N297    1.337   .     S
C291   N298    1.320   1_655 S
C291   N301    1.341   1_655 S
N292   Zn325   2.082   1_556 S
N294   N295    1.354   .     S
N295   N296    1.303   .     S
N296   N297    1.363   .     S
N297   Zn304   1.988   1_655 S
N298   C291    1.320   1_455 S
N298   N299    1.358   .     S
N298   Zn304   2.089   .     S
N299   N300    1.308   .     S
N300   N301    1.343   .     S
N301   C291    1.341   1_455 S
N301   Zn325   2.232   1_456 S
H302   O323    0.881   1_556 S
H303   O324    0.859   .     S
Zn304  N297    1.988   1_455 S
O305   Zn307   2.095   .     S
O306   Zn307   2.403   .     S
O308   Zn310   2.095   .     S
O309   Zn310   2.403   .     S
O311   H55     0.881   1_554 S
O311   Zn313   2.095   .     S
O312   H227    0.859   1_554 S
O312   Zn313   2.403   .     S
Zn313  N45     2.082   1_554 S
Zn313  N54     2.232   1_554 S
O314   H74     0.881   1_554 S
O314   Zn316   2.095   .     S
O315   H208    0.859   1_554 S
O315   Zn316   2.403   .     S
Zn316  N64     2.082   1_554 S
Zn316  N73     2.232   1_554 S
O317   Zn319   2.095   .     S
O318   Zn319   2.403   1_545 S
Zn319  N263    2.232   1_565 S
Zn319  N92     2.232   1_565 S
Zn319  O318    2.403   1_565 S
O320   Zn322   2.095   .     S
O321   Zn322   2.403   1_565 S
Zn322  N244    2.232   1_545 S
Zn322  N111    2.232   1_545 S
Zn322  O321    2.403   1_545 S
O323   H302    0.881   1_554 S
O323   Zn325   2.095   .     S
O324   H132    0.859   1_554 S
O324   Zn325   2.403   1_455 S
Zn325  N292    2.082   1_554 S
Zn325  N301    2.232   1_654 S
Zn325  N130    2.232   1_655 S
Zn325  O324    2.403   1_655 S
O326   H283    0.881   1_554 S
O326   Zn328   2.095   .     S
O327   H151    0.859   1_554 S
O327   Zn328   2.403   1_655 S
Zn328  N273    2.082   1_554 S
Zn328  N282    2.232   1_454 S
Zn328  N149    2.232   1_455 S
Zn328  O327    2.403   1_455 S
