data_REPKEG_FSR
_audit_creation_date              2024-06-11
_audit_creation_method            'Materials Studio'
_symmetry_space_group_name_H-M    'P1'
_symmetry_Int_Tables_number       1
_symmetry_cell_setting            triclinic
loop_
_symmetry_equiv_pos_as_xyz
  x,y,z
_cell_length_a                    17.1631
_cell_length_b                    18.8529
_cell_length_c                    20.6644
_cell_angle_alpha                 65.6700
_cell_angle_beta                  87.7410
_cell_angle_gamma                 84.8670
loop_
_atom_site_label
_atom_site_type_symbol
_atom_site_fract_x
_atom_site_fract_y
_atom_site_fract_z
_atom_site_U_iso_or_equiv
_atom_site_adp_type
_atom_site_occupancy
Sr1    Sr    0.79685   0.81943   0.00934   0.00000  Uiso   1.00
Sr2    Sr    0.32507   0.35279   0.00287   0.00000  Uiso   1.00
Sr3    Sr    0.78619   0.87251   0.16954   0.00000  Uiso   1.00
Sr4    Sr    0.32420   0.40390   0.16368   0.00000  Uiso   1.00
O5     O     0.30869   0.28246   0.92687   0.00000  Uiso   1.00
O6     O     0.40578   0.22193   0.07488   0.00000  Uiso   1.00
O7     O     0.68830   0.89830   0.92354   0.00000  Uiso   1.00
H8     H     0.66120   0.86760   0.91500   0.00000  Uiso   1.00
H9     H     0.70810   0.92590   0.88370   0.00000  Uiso   1.00
O10    O     0.29895   0.19542   0.88225   0.00000  Uiso   1.00
O11    O     0.32651   0.55561   0.07315   0.00000  Uiso   1.00
O12    O     0.32098   0.47103   0.02505   0.00000  Uiso   1.00
O13    O     0.87267   0.77575   0.13653   0.00000  Uiso   1.00
O14    O     0.76685   0.67010   0.88021   0.00000  Uiso   1.00
O15    O     0.77725   0.75090   0.93151   0.00000  Uiso   1.00
O16    O     0.40516   0.30043   0.13076   0.00000  Uiso   1.00
O17    O     0.90401   0.87237   0.24577   0.00000  Uiso   1.00
O18    O     0.87662   0.69184   0.08675   0.00000  Uiso   1.00
O19    O     0.79660   0.94030   0.02859   0.00000  Uiso   1.00
O20    O     0.79612   0.94375   0.25075   0.00000  Uiso   1.00
O21    O     0.44900   0.40970   0.93909   0.00000  Uiso   1.00
H22    H     0.49270   0.38990   0.93080   0.00000  Uiso   1.00
O23    O     0.33690   0.46332   0.25354   0.00000  Uiso   1.00
O24    O     0.48248   0.44171   0.11711   0.00000  Uiso   1.00
H25    H     0.48220   0.47810   0.07430   0.00000  Uiso   1.00
H26    H     0.50860   0.40210   0.11310   0.00000  Uiso   1.00
O27    O     0.20820   0.42463   0.92426   0.00000  Uiso   1.00
H28    H     0.18490   0.39280   0.91380   0.00000  Uiso   1.00
H29    H     0.22420   0.45730   0.88450   0.00000  Uiso   1.00
O30    O     0.44620   0.38950   0.25768   0.00000  Uiso   1.00
O31    O     0.84410   0.00680   0.08155   0.00000  Uiso   1.00
O32    O     0.29680   0.28990   0.27690   0.00000  Uiso   1.00
O33    O     0.75990   0.76060   0.28670   0.00000  Uiso   1.00
O34    O     0.64940   0.94610   0.15250   0.00000  Uiso   1.00
H35    H     0.60310   0.92620   0.15750   0.00000  Uiso   1.00
H36    H     0.63790   0.99710   0.14010   0.00000  Uiso   1.00
C37    C     0.48930   0.27670   0.66965   0.00000  Uiso   1.00
C38    C     0.57510   0.14090   0.50016   0.00000  Uiso   1.00
O39    O     0.17870   0.45820   0.16410   0.00000  Uiso   1.00
H40    H     0.13630   0.43780   0.15880   0.00000  Uiso   1.00
H41    H     0.16120   0.50090   0.16950   0.00000  Uiso   1.00
C42    C     0.61520   0.15300   0.55726   0.00000  Uiso   1.00
C43    C     0.10230   0.66050   0.55490   0.00000  Uiso   1.00
C44    C     0.44950   0.31520   0.71320   0.00000  Uiso   1.00
C45    C     0.06680   0.64680   0.49680   0.00000  Uiso   1.00
C46    C     0.45770   0.39370   0.69840   0.00000  Uiso   1.00
H47    H     0.48910   0.42270   0.66080   0.00000  Uiso   1.00
C48    C     0.69140   0.12590   0.57380   0.00000  Uiso   1.00
C49    C     0.42290   0.43270   0.34990   0.00000  Uiso   1.00
C50    C     0.17650   0.63190   0.57750   0.00000  Uiso   1.00
C51    C     0.82860   0.16250   0.69380   0.00000  Uiso   1.00
H52    H     0.87190   0.19070   0.68890   0.00000  Uiso   1.00
C53    C     0.56990   0.19750   0.59355   0.00000  Uiso   1.00
C54    C     0.83930   0.02010   0.45780   0.00000  Uiso   1.00
C55    C     0.79470   0.16390   0.63380   0.00000  Uiso   1.00
H56    H     0.81660   0.19140   0.58950   0.00000  Uiso   1.00
C57    C     0.88820   0.98130   0.41850   0.00000  Uiso   1.00
C58    C     0.91680   0.80700   0.71360   0.00000  Uiso   1.00
C59    C     0.28170   0.67040   0.63430   0.00000  Uiso   1.00
H60    H     0.30740   0.68880   0.59070   0.00000  Uiso   1.00
C61    C     0.95770   0.66570   0.25610   0.00000  Uiso   1.00
H62    H     0.93970   0.71320   0.25720   0.00000  Uiso   1.00
C63    C     0.92050   0.88450   0.70400   0.00000  Uiso   1.00
H64    H     0.95070   0.91720   0.66730   0.00000  Uiso   1.00
C65    C     0.31440   0.67660   0.69180   0.00000  Uiso   1.00
H66    H     0.36070   0.70060   0.68600   0.00000  Uiso   1.00
C67    C     0.96110   0.77580   0.66600   0.00000  Uiso   1.00
C68    C     0.87220   0.75840   0.77020   0.00000  Uiso   1.00
H69    H     0.86870   0.70690   0.77700   0.00000  Uiso   1.00
C70    C     0.03100   0.70780   0.43880   0.00000  Uiso   1.00
H71    H     0.02170   0.75670   0.43980   0.00000  Uiso   1.00
C72    C     0.33290   0.50890   0.48170   0.00000  Uiso   1.00
C73    C     0.38840   0.46830   0.44810   0.00000  Uiso   1.00
C74    C     0.41910   0.42860   0.73970   0.00000  Uiso   1.00
H75    H     0.42320   0.48130   0.72810   0.00000  Uiso   1.00
O76    O     0.92630   0.85410   0.94880   0.00000  Uiso   1.00
H77    H     0.95950   0.82580   0.92240   0.00000  Uiso   1.00
C78    C     0.42000   0.23450   0.12950   0.00000  Uiso   1.00
C79    C     0.40350   0.27290   0.77140   0.00000  Uiso   1.00
H80    H     0.39680   0.22090   0.78160   0.00000  Uiso   1.00
C81    C     0.47160   0.17680   0.25380   0.00000  Uiso   1.00
H82    H     0.46100   0.22560   0.25490   0.00000  Uiso   1.00
C83    C     0.74320   0.09230   0.53220   0.00000  Uiso   1.00
C84    C     0.37000   0.46670   0.38360   0.00000  Uiso   1.00
H85    H     0.32170   0.48870   0.36280   0.00000  Uiso   1.00
C86    C     0.85660   0.97030   0.36280   0.00000  Uiso   1.00
H87    H     0.80480   0.98760   0.34990   0.00000  Uiso   1.00
C88    C     0.36760   0.30670   0.81410   0.00000  Uiso   1.00
C89    C     0.32650   0.48270   0.55570   0.00000  Uiso   1.00
H90    H     0.35590   0.43780   0.58510   0.00000  Uiso   1.00
C91    C     0.50400   0.11470   0.31340   0.00000  Uiso   1.00
C92    C     0.05160   0.70500   0.58790   0.00000  Uiso   1.00
C93    C     0.00210   0.61100   0.31270   0.00000  Uiso   1.00
C94    C     0.60310   0.25650   0.60420   0.00000  Uiso   1.00
H95    H     0.65270   0.27010   0.58610   0.00000  Uiso   1.00
C96    C     0.45420   0.22040   0.65620   0.00000  Uiso   1.00
H97    H     0.40390   0.20800   0.67300   0.00000  Uiso   1.00
C98    C     0.52420   0.12420   0.37890   0.00000  Uiso   1.00
C99    C     0.90160   0.93350   0.32560   0.00000  Uiso   1.00
C100   C     0.83570   0.86460   0.80510   0.00000  Uiso   1.00
H101   H     0.80850   0.88380   0.83520   0.00000  Uiso   1.00
C102   C     0.30710   0.59530   0.88850   0.00000  Uiso   1.00
H103   H     0.28570   0.54940   0.89460   0.00000  Uiso   1.00
C104   C     0.23080   0.59090   0.54290   0.00000  Uiso   1.00
C105   C     0.02110   0.62480   0.37630   0.00000  Uiso   1.00
C106   C     0.72800   0.12470   0.63850   0.00000  Uiso   1.00
C107   C     0.32710   0.53930   0.01990   0.00000  Uiso   1.00
C108   C     0.83310   0.78620   0.81630   0.00000  Uiso   1.00
C109   C     0.56350   0.29560   0.64150   0.00000  Uiso   1.00
H110   H     0.58690   0.33500   0.64770   0.00000  Uiso   1.00
C111   C     0.86470   0.91580   0.27030   0.00000  Uiso   1.00
C112   C     0.45480   0.16700   0.19280   0.00000  Uiso   1.00
N113   N     0.79150   0.70030   0.40430   0.00000  Uiso   1.00
C114   C     0.79970   0.12000   0.76140   0.00000  Uiso   1.00
C115   C     0.89290   0.71020   0.13730   0.00000  Uiso   1.00
C116   C     0.31130   0.65470   0.82050   0.00000  Uiso   1.00
C117   C     0.49630   0.40170   0.38030   0.00000  Uiso   1.00
H118   H     0.53270   0.38080   0.35700   0.00000  Uiso   1.00
C119   C     0.07750   0.76780   0.59770   0.00000  Uiso   1.00
H120   H     0.12520   0.78670   0.57860   0.00000  Uiso   1.00
C121   C     0.49390   0.18180   0.61740   0.00000  Uiso   1.00
H122   H     0.46900   0.14550   0.60770   0.00000  Uiso   1.00
C123   C     0.27840   0.64700   0.75860   0.00000  Uiso   1.00
C124   C     0.53700   0.20360   0.44410   0.00000  Uiso   1.00
H125   H     0.52780   0.25160   0.44690   0.00000  Uiso   1.00
C126   C     0.23820   0.61720   0.46970   0.00000  Uiso   1.00
H127   H     0.20960   0.66270   0.44040   0.00000  Uiso   1.00
C128   C     0.28780   0.57650   0.43970   0.00000  Uiso   1.00
H129   H     0.29100   0.59480   0.39050   0.00000  Uiso   1.00
C130   C     0.21040   0.63700   0.64070   0.00000  Uiso   1.00
C131   C     0.07310   0.57340   0.49600   0.00000  Uiso   1.00
H132   H     0.09220   0.53060   0.53590   0.00000  Uiso   1.00
C133   C     0.03240   0.80250   0.63600   0.00000  Uiso   1.00
H134   H     0.05060   0.84470   0.64170   0.00000  Uiso   1.00
C135   C     0.97950   0.90920   0.34420   0.00000  Uiso   1.00
H136   H     0.01030   0.88630   0.31870   0.00000  Uiso   1.00
C137   C     0.36850   0.67160   0.93850   0.00000  Uiso   1.00
H138   H     0.38670   0.67770   0.97750   0.00000  Uiso   1.00
C139   C     0.73290   0.08030   0.76590   0.00000  Uiso   1.00
H140   H     0.71160   0.05180   0.81030   0.00000  Uiso   1.00
C141   C     0.32260   0.25860   0.87840   0.00000  Uiso   1.00
C142   C     0.84400   0.99330   0.53100   0.00000  Uiso   1.00
H143   H     0.87860   0.95060   0.55620   0.00000  Uiso   1.00
C144   C     0.79790   0.02930   0.56710   0.00000  Uiso   1.00
H145   H     0.80330   0.01100   0.61610   0.00000  Uiso   1.00
C146   C     0.05160   0.56260   0.43720   0.00000  Uiso   1.00
H147   H     0.05760   0.51270   0.43800   0.00000  Uiso   1.00
C148   C     0.58010   0.06880   0.49690   0.00000  Uiso   1.00
H149   H     0.60010   0.02490   0.53540   0.00000  Uiso   1.00
C150   C     0.46040   0.43340   0.47960   0.00000  Uiso   1.00
H151   H     0.47190   0.43110   0.52400   0.00000  Uiso   1.00
C152   C     0.97660   0.68280   0.61230   0.00000  Uiso   1.00
H153   H     0.95590   0.64470   0.60200   0.00000  Uiso   1.00
C154   C     0.01150   0.91850   0.39980   0.00000  Uiso   1.00
H155   H     0.06360   0.90180   0.41200   0.00000  Uiso   1.00
C156   C     0.37510   0.38590   0.79740   0.00000  Uiso   1.00
H157   H     0.35030   0.40940   0.82530   0.00000  Uiso   1.00
C158   C     0.94010   0.65040   0.19840   0.00000  Uiso   1.00
C159   C     0.33440   0.60350   0.94750   0.00000  Uiso   1.00
C160   C     0.55610   0.06100   0.43740   0.00000  Uiso   1.00
H161   H     0.56140   0.01200   0.43640   0.00000  Uiso   1.00
C162   C     0.78800   0.08540   0.42170   0.00000  Uiso   1.00
H163   H     0.78500   0.10540   0.37250   0.00000  Uiso   1.00
C164   C     0.87920   0.91320   0.74890   0.00000  Uiso   1.00
H165   H     0.88090   0.96530   0.74110   0.00000  Uiso   1.00
C166   C     0.51300   0.19550   0.38500   0.00000  Uiso   1.00
H167   H     0.48880   0.23850   0.34820   0.00000  Uiso   1.00
C168   C     0.81990   0.06070   0.89370   0.00000  Uiso   1.00
H169   H     0.78390   0.02510   0.89760   0.00000  Uiso   1.00
C170   C     0.74130   0.12090   0.45800   0.00000  Uiso   1.00
H171   H     0.70790   0.16460   0.43250   0.00000  Uiso   1.00
C172   C     0.40070   0.42900   0.28220   0.00000  Uiso   1.00
C173   C     0.51530   0.40150   0.44490   0.00000  Uiso   1.00
H174   H     0.56420   0.38050   0.46510   0.00000  Uiso   1.00
C175   C     0.96520   0.95320   0.43830   0.00000  Uiso   1.00
H176   H     0.98630   0.95740   0.47730   0.00000  Uiso   1.00
C177   C     0.79010   0.73230   0.87960   0.00000  Uiso   1.00
C178   C     0.27630   0.52350   0.58540   0.00000  Uiso   1.00
H179   H     0.27310   0.50560   0.63460   0.00000  Uiso   1.00
C180   C     0.00880   0.69770   0.37920   0.00000  Uiso   1.00
H181   H     0.98550   0.73990   0.34100   0.00000  Uiso   1.00
C182   C     0.83770   0.11610   0.82660   0.00000  Uiso   1.00
C183   C     0.93270   0.71660   0.65140   0.00000  Uiso   1.00
H184   H     0.88360   0.69980   0.66830   0.00000  Uiso   1.00
C185   C     0.37500   0.72950   0.87120   0.00000  Uiso   1.00
H186   H     0.39850   0.77450   0.86490   0.00000  Uiso   1.00
C187   C     0.83070   0.99750   0.02590   0.00000  Uiso   1.00
C188   C     0.20920   0.61080   0.76540   0.00000  Uiso   1.00
H189   H     0.18520   0.58930   0.80960   0.00000  Uiso   1.00
C190   C     0.34680   0.72160   0.81240   0.00000  Uiso   1.00
H191   H     0.35170   0.76140   0.76740   0.00000  Uiso   1.00
C192   C     0.17560   0.60620   0.70740   0.00000  Uiso   1.00
H193   H     0.12930   0.58210   0.71320   0.00000  Uiso   1.00
C194   C     0.69820   0.08290   0.70590   0.00000  Uiso   1.00
H195   H     0.65400   0.05600   0.71050   0.00000  Uiso   1.00
C196   C     0.85370   0.05670   0.95500   0.00000  Uiso   1.00
C197   C     0.47080   0.09530   0.19040   0.00000  Uiso   1.00
H198   H     0.46240   0.08940   0.14880   0.00000  Uiso   1.00
N199   N     0.30740   0.18790   0.38100   0.00000  Uiso   1.00
C200   C     0.78280   0.70330   0.34020   0.00000  Uiso   1.00
H201   H     0.79530   0.65710   0.33470   0.00000  Uiso   1.00
C202   C     0.02950   0.54130   0.30800   0.00000  Uiso   1.00
H203   H     0.06140   0.50490   0.34380   0.00000  Uiso   1.00
C204   C     0.96590   0.57950   0.19630   0.00000  Uiso   1.00
H205   H     0.95330   0.56870   0.15810   0.00000  Uiso   1.00
C206   C     0.01030   0.52530   0.25150   0.00000  Uiso   1.00
H207   H     0.02740   0.47740   0.25060   0.00000  Uiso   1.00
C208   C     0.89300   0.16810   0.82220   0.00000  Uiso   1.00
H209   H     0.90780   0.20440   0.77810   0.00000  Uiso   1.00
C210   C     0.51640   0.04260   0.31010   0.00000  Uiso   1.00
H211   H     0.53670   0.99990   0.34960   0.00000  Uiso   1.00
C212   C     0.82060   0.63050   0.46290   0.00000  Uiso   1.00
H213   H     0.83050   0.58890   0.44750   0.00000  Uiso   1.00
H214   H     0.78250   0.61620   0.50040   0.00000  Uiso   1.00
H215   H     0.86830   0.63960   0.47990   0.00000  Uiso   1.00
C216   C     0.49960   0.03220   0.25010   0.00000  Uiso   1.00
H217   H     0.50750   0.98290   0.24970   0.00000  Uiso   1.00
C218   C     0.90630   0.11090   0.94960   0.00000  Uiso   1.00
H219   H     0.92810   0.11040   0.99030   0.00000  Uiso   1.00
C220   C     0.30710   0.25780   0.34120   0.00000  Uiso   1.00
H221   H     0.31610   0.29070   0.36300   0.00000  Uiso   1.00
C222   C     0.31910   0.14350   0.45370   0.00000  Uiso   1.00
H223   H     0.36270   0.10540   0.46050   0.00000  Uiso   1.00
H224   H     0.27300   0.11740   0.47430   0.00000  Uiso   1.00
H225   H     0.32990   0.17710   0.47620   0.00000  Uiso   1.00
C226   C     0.92580   0.16580   0.88310   0.00000  Uiso   1.00
H227   H     0.96150   0.20160   0.87950   0.00000  Uiso   1.00
C228   C     0.29530   0.13400   0.34060   0.00000  Uiso   1.00
H229   H     0.24540   0.11260   0.35330   0.00000  Uiso   1.00
H230   H     0.33610   0.09230   0.35380   0.00000  Uiso   1.00
H231   H     0.29710   0.16450   0.29020   0.00000  Uiso   1.00
C232   C     0.77520   0.77050   0.41460   0.00000  Uiso   1.00
H233   H     0.77270   0.81440   0.36930   0.00000  Uiso   1.00
H234   H     0.81590   0.77550   0.44260   0.00000  Uiso   1.00
H235   H     0.72600   0.76880   0.43870   0.00000  Uiso   1.00
Sr236  Sr    0.20315   0.18057   0.99066   0.00000  Uiso   1.00
Sr237  Sr    0.67493   0.64721   0.99713   0.00000  Uiso   1.00
Sr238  Sr    0.21381   0.12749   0.83046   0.00000  Uiso   1.00
Sr239  Sr    0.67580   0.59610   0.83632   0.00000  Uiso   1.00
O240   O     0.69131   0.71754   0.07313   0.00000  Uiso   1.00
O241   O     0.59422   0.77807   0.92512   0.00000  Uiso   1.00
O242   O     0.31170   0.10170   0.07646   0.00000  Uiso   1.00
H243   H     0.33880   0.13240   0.08500   0.00000  Uiso   1.00
H244   H     0.29190   0.07410   0.11630   0.00000  Uiso   1.00
O245   O     0.70105   0.80458   0.11775   0.00000  Uiso   1.00
O246   O     0.67349   0.44439   0.92685   0.00000  Uiso   1.00
O247   O     0.67902   0.52897   0.97495   0.00000  Uiso   1.00
O248   O     0.12733   0.22425   0.86347   0.00000  Uiso   1.00
O249   O     0.23315   0.32990   0.11979   0.00000  Uiso   1.00
O250   O     0.22275   0.24910   0.06849   0.00000  Uiso   1.00
O251   O     0.59484   0.69957   0.86924   0.00000  Uiso   1.00
O252   O     0.09599   0.12763   0.75423   0.00000  Uiso   1.00
O253   O     0.12338   0.30816   0.91325   0.00000  Uiso   1.00
O254   O     0.20340   0.05970   0.97141   0.00000  Uiso   1.00
O255   O     0.20388   0.05625   0.74925   0.00000  Uiso   1.00
O256   O     0.55100   0.59030   0.06091   0.00000  Uiso   1.00
H257   H     0.50730   0.61010   0.06920   0.00000  Uiso   1.00
O258   O     0.66310   0.53668   0.74646   0.00000  Uiso   1.00
O259   O     0.51752   0.55829   0.88289   0.00000  Uiso   1.00
H260   H     0.51780   0.52190   0.92570   0.00000  Uiso   1.00
H261   H     0.49140   0.59790   0.88690   0.00000  Uiso   1.00
O262   O     0.79180   0.57537   0.07574   0.00000  Uiso   1.00
H263   H     0.81510   0.60720   0.08620   0.00000  Uiso   1.00
H264   H     0.77580   0.54270   0.11550   0.00000  Uiso   1.00
O265   O     0.55380   0.61050   0.74232   0.00000  Uiso   1.00
O266   O     0.15590   0.99320   0.91845   0.00000  Uiso   1.00
O267   O     0.70320   0.71010   0.72310   0.00000  Uiso   1.00
O268   O     0.24010   0.23940   0.71330   0.00000  Uiso   1.00
O269   O     0.35060   0.05390   0.84750   0.00000  Uiso   1.00
H270   H     0.39690   0.07380   0.84250   0.00000  Uiso   1.00
H271   H     0.36210   0.00290   0.85990   0.00000  Uiso   1.00
C272   C     0.51070   0.72330   0.33035   0.00000  Uiso   1.00
C273   C     0.42490   0.85910   0.49984   0.00000  Uiso   1.00
O274   O     0.82130   0.54180   0.83590   0.00000  Uiso   1.00
H275   H     0.86370   0.56220   0.84120   0.00000  Uiso   1.00
H276   H     0.83880   0.49910   0.83050   0.00000  Uiso   1.00
C277   C     0.38480   0.84700   0.44274   0.00000  Uiso   1.00
C278   C     0.89770   0.33950   0.44510   0.00000  Uiso   1.00
C279   C     0.55050   0.68480   0.28680   0.00000  Uiso   1.00
C280   C     0.93320   0.35320   0.50320   0.00000  Uiso   1.00
C281   C     0.54230   0.60630   0.30160   0.00000  Uiso   1.00
H282   H     0.51090   0.57730   0.33920   0.00000  Uiso   1.00
C283   C     0.30860   0.87410   0.42620   0.00000  Uiso   1.00
C284   C     0.57710   0.56730   0.65010   0.00000  Uiso   1.00
C285   C     0.82350   0.36810   0.42250   0.00000  Uiso   1.00
C286   C     0.17140   0.83750   0.30620   0.00000  Uiso   1.00
H287   H     0.12810   0.80930   0.31110   0.00000  Uiso   1.00
C288   C     0.43010   0.80250   0.40645   0.00000  Uiso   1.00
C289   C     0.16070   0.97990   0.54220   0.00000  Uiso   1.00
C290   C     0.20530   0.83610   0.36620   0.00000  Uiso   1.00
H291   H     0.18340   0.80860   0.41050   0.00000  Uiso   1.00
C292   C     0.11180   0.01870   0.58150   0.00000  Uiso   1.00
C293   C     0.08320   0.19300   0.28640   0.00000  Uiso   1.00
C294   C     0.71830   0.32960   0.36570   0.00000  Uiso   1.00
H295   H     0.69260   0.31120   0.40930   0.00000  Uiso   1.00
C296   C     0.04230   0.33430   0.74390   0.00000  Uiso   1.00
H297   H     0.06030   0.28680   0.74280   0.00000  Uiso   1.00
C298   C     0.07950   0.11550   0.29600   0.00000  Uiso   1.00
H299   H     0.04930   0.08280   0.33270   0.00000  Uiso   1.00
C300   C     0.68560   0.32340   0.30820   0.00000  Uiso   1.00
H301   H     0.63930   0.29940   0.31400   0.00000  Uiso   1.00
C302   C     0.03890   0.22420   0.33400   0.00000  Uiso   1.00
C303   C     0.12780   0.24160   0.22980   0.00000  Uiso   1.00
H304   H     0.13130   0.29310   0.22300   0.00000  Uiso   1.00
C305   C     0.96900   0.29220   0.56120   0.00000  Uiso   1.00
H306   H     0.97830   0.24330   0.56020   0.00000  Uiso   1.00
C307   C     0.66710   0.49110   0.51830   0.00000  Uiso   1.00
C308   C     0.61160   0.53170   0.55190   0.00000  Uiso   1.00
C309   C     0.58090   0.57140   0.26030   0.00000  Uiso   1.00
H310   H     0.57680   0.51870   0.27190   0.00000  Uiso   1.00
O311   O     0.07370   0.14590   0.05120   0.00000  Uiso   1.00
H312   H     0.04050   0.17420   0.07760   0.00000  Uiso   1.00
C313   C     0.58000   0.76550   0.87050   0.00000  Uiso   1.00
C314   C     0.59650   0.72710   0.22860   0.00000  Uiso   1.00
H315   H     0.60320   0.77910   0.21840   0.00000  Uiso   1.00
C316   C     0.52840   0.82320   0.74620   0.00000  Uiso   1.00
H317   H     0.53900   0.77440   0.74510   0.00000  Uiso   1.00
C318   C     0.25680   0.90770   0.46780   0.00000  Uiso   1.00
C319   C     0.63000   0.53330   0.61640   0.00000  Uiso   1.00
H320   H     0.67830   0.51130   0.63720   0.00000  Uiso   1.00
C321   C     0.14340   0.02970   0.63720   0.00000  Uiso   1.00
H322   H     0.19520   0.01240   0.65010   0.00000  Uiso   1.00
C323   C     0.63240   0.69330   0.18590   0.00000  Uiso   1.00
C324   C     0.67350   0.51730   0.44430   0.00000  Uiso   1.00
H325   H     0.64410   0.56220   0.41490   0.00000  Uiso   1.00
C326   C     0.49600   0.88530   0.68660   0.00000  Uiso   1.00
C327   C     0.94840   0.29500   0.41210   0.00000  Uiso   1.00
C328   C     0.99790   0.38900   0.68730   0.00000  Uiso   1.00
C329   C     0.39690   0.74350   0.39580   0.00000  Uiso   1.00
H330   H     0.34730   0.72990   0.41390   0.00000  Uiso   1.00
C331   C     0.54580   0.77960   0.34380   0.00000  Uiso   1.00
H332   H     0.59610   0.79200   0.32700   0.00000  Uiso   1.00
C333   C     0.47580   0.87580   0.62110   0.00000  Uiso   1.00
C334   C     0.09840   0.06650   0.67440   0.00000  Uiso   1.00
C335   C     0.16430   0.13540   0.19490   0.00000  Uiso   1.00
H336   H     0.19150   0.11620   0.16480   0.00000  Uiso   1.00
C337   C     0.69290   0.40470   0.11150   0.00000  Uiso   1.00
H338   H     0.71430   0.45060   0.10540   0.00000  Uiso   1.00
C339   C     0.76920   0.40910   0.45710   0.00000  Uiso   1.00
C340   C     0.97890   0.37520   0.62370   0.00000  Uiso   1.00
C341   C     0.27200   0.87530   0.36150   0.00000  Uiso   1.00
C342   C     0.67290   0.46070   0.98010   0.00000  Uiso   1.00
C343   C     0.16690   0.21380   0.18370   0.00000  Uiso   1.00
C344   C     0.43650   0.70440   0.35850   0.00000  Uiso   1.00
H345   H     0.41310   0.66500   0.35230   0.00000  Uiso   1.00
C346   C     0.13530   0.08420   0.72970   0.00000  Uiso   1.00
C347   C     0.54520   0.83300   0.80720   0.00000  Uiso   1.00
N348   N     0.20850   0.29970   0.59570   0.00000  Uiso   1.00
C349   C     0.20030   0.88000   0.23860   0.00000  Uiso   1.00
C350   C     0.10710   0.28980   0.86270   0.00000  Uiso   1.00
C351   C     0.68870   0.34530   0.17950   0.00000  Uiso   1.00
C352   C     0.50370   0.59830   0.61970   0.00000  Uiso   1.00
H353   H     0.46730   0.61920   0.64300   0.00000  Uiso   1.00
C354   C     0.92250   0.23220   0.40230   0.00000  Uiso   1.00
H355   H     0.87480   0.21330   0.42140   0.00000  Uiso   1.00
C356   C     0.50610   0.81820   0.38260   0.00000  Uiso   1.00
H357   H     0.53100   0.85450   0.39230   0.00000  Uiso   1.00
C358   C     0.72160   0.35300   0.24140   0.00000  Uiso   1.00
C359   C     0.46300   0.79640   0.55590   0.00000  Uiso   1.00
H360   H     0.47220   0.74840   0.55310   0.00000  Uiso   1.00
C361   C     0.76180   0.38280   0.53030   0.00000  Uiso   1.00
H362   H     0.79040   0.33730   0.55960   0.00000  Uiso   1.00
C363   C     0.71220   0.42350   0.56030   0.00000  Uiso   1.00
H364   H     0.70900   0.40520   0.60950   0.00000  Uiso   1.00
C365   C     0.78960   0.36300   0.35930   0.00000  Uiso   1.00
C366   C     0.92690   0.42660   0.50400   0.00000  Uiso   1.00
H367   H     0.90780   0.46940   0.46410   0.00000  Uiso   1.00
C368   C     0.96760   0.19750   0.36400   0.00000  Uiso   1.00
H369   H     0.94940   0.15530   0.35830   0.00000  Uiso   1.00
C370   C     0.02050   0.09080   0.65580   0.00000  Uiso   1.00
H371   H     0.98970   0.11370   0.68130   0.00000  Uiso   1.00
C372   C     0.63150   0.32840   0.06150   0.00000  Uiso   1.00
H373   H     0.61330   0.32230   0.02250   0.00000  Uiso   1.00
C374   C     0.26710   0.91970   0.23410   0.00000  Uiso   1.00
H375   H     0.28840   0.94820   0.18970   0.00000  Uiso   1.00
C376   C     0.67740   0.74140   0.12160   0.00000  Uiso   1.00
C377   C     0.15600   0.00670   0.46900   0.00000  Uiso   1.00
H378   H     0.12140   0.04940   0.44380   0.00000  Uiso   1.00
C379   C     0.20210   0.97070   0.43290   0.00000  Uiso   1.00
H380   H     0.19670   0.98900   0.38390   0.00000  Uiso   1.00
C381   C     0.94840   0.43740   0.56280   0.00000  Uiso   1.00
H382   H     0.94240   0.48730   0.56200   0.00000  Uiso   1.00
C383   C     0.41990   0.93120   0.50310   0.00000  Uiso   1.00
H384   H     0.39990   0.97510   0.46460   0.00000  Uiso   1.00
C385   C     0.53960   0.56660   0.52040   0.00000  Uiso   1.00
H386   H     0.52810   0.56890   0.47600   0.00000  Uiso   1.00
C387   C     0.02340   0.31720   0.38770   0.00000  Uiso   1.00
H388   H     0.04410   0.35530   0.39800   0.00000  Uiso   1.00
C389   C     0.98850   0.08150   0.60020   0.00000  Uiso   1.00
H390   H     0.93640   0.09820   0.58800   0.00000  Uiso   1.00
C391   C     0.62490   0.61410   0.20260   0.00000  Uiso   1.00
H392   H     0.64970   0.59060   0.17470   0.00000  Uiso   1.00
C393   C     0.05990   0.34960   0.80160   0.00000  Uiso   1.00
C394   C     0.66560   0.39650   0.05250   0.00000  Uiso   1.00
C395   C     0.44390   0.93900   0.56260   0.00000  Uiso   1.00
H396   H     0.43860   0.98800   0.56360   0.00000  Uiso   1.00
C397   C     0.21200   0.91460   0.57830   0.00000  Uiso   1.00
H398   H     0.21500   0.89460   0.62750   0.00000  Uiso   1.00
C399   C     0.12080   0.08680   0.25110   0.00000  Uiso   1.00
H400   H     0.11910   0.03470   0.25890   0.00000  Uiso   1.00
C401   C     0.48700   0.80450   0.61500   0.00000  Uiso   1.00
H402   H     0.51120   0.76150   0.65180   0.00000  Uiso   1.00
C403   C     0.18010   0.93930   0.10630   0.00000  Uiso   1.00
H404   H     0.21610   0.97490   0.10240   0.00000  Uiso   1.00
C405   C     0.25870   0.87910   0.54200   0.00000  Uiso   1.00
H406   H     0.29210   0.83540   0.56750   0.00000  Uiso   1.00
C407   C     0.59930   0.57100   0.71780   0.00000  Uiso   1.00
C408   C     0.48470   0.59850   0.55510   0.00000  Uiso   1.00
H409   H     0.43580   0.61950   0.53490   0.00000  Uiso   1.00
C410   C     0.03480   0.04680   0.56170   0.00000  Uiso   1.00
H411   H     0.01370   0.04260   0.52270   0.00000  Uiso   1.00
C412   C     0.20990   0.26770   0.12040   0.00000  Uiso   1.00
C413   C     0.72370   0.47650   0.41460   0.00000  Uiso   1.00
H414   H     0.72690   0.49440   0.36540   0.00000  Uiso   1.00
C415   C     0.99120   0.30230   0.62080   0.00000  Uiso   1.00
H416   H     0.01450   0.26010   0.65900   0.00000  Uiso   1.00
C417   C     0.16230   0.88390   0.17340   0.00000  Uiso   1.00
C418   C     0.06730   0.28340   0.34860   0.00000  Uiso   1.00
H419   H     0.11640   0.30020   0.33170   0.00000  Uiso   1.00
C420   C     0.62500   0.27050   0.12880   0.00000  Uiso   1.00
H421   H     0.60150   0.22550   0.13510   0.00000  Uiso   1.00
C422   C     0.16930   0.00250   0.97410   0.00000  Uiso   1.00
C423   C     0.79080   0.38920   0.23460   0.00000  Uiso   1.00
H424   H     0.81480   0.41070   0.19040   0.00000  Uiso   1.00
C425   C     0.65320   0.27840   0.18760   0.00000  Uiso   1.00
H426   H     0.64830   0.23860   0.23260   0.00000  Uiso   1.00
C427   C     0.82440   0.39380   0.29260   0.00000  Uiso   1.00
H428   H     0.87070   0.41790   0.28680   0.00000  Uiso   1.00
C429   C     0.30180   0.91710   0.29410   0.00000  Uiso   1.00
H430   H     0.34600   0.94400   0.28950   0.00000  Uiso   1.00
C431   C     0.14630   0.94330   0.04500   0.00000  Uiso   1.00
C432   C     0.52920   0.90470   0.80960   0.00000  Uiso   1.00
H433   H     0.53760   0.91060   0.85120   0.00000  Uiso   1.00
N434   N     0.69260   0.81210   0.61900   0.00000  Uiso   1.00
C435   C     0.21720   0.29670   0.65980   0.00000  Uiso   1.00
H436   H     0.20470   0.34290   0.66530   0.00000  Uiso   1.00
C437   C     0.97050   0.45870   0.69200   0.00000  Uiso   1.00
H438   H     0.93860   0.49510   0.65620   0.00000  Uiso   1.00
C439   C     0.03410   0.42050   0.80370   0.00000  Uiso   1.00
H440   H     0.04670   0.43130   0.84190   0.00000  Uiso   1.00
C441   C     0.98970   0.47470   0.74850   0.00000  Uiso   1.00
H442   H     0.97260   0.52260   0.74940   0.00000  Uiso   1.00
C443   C     0.10700   0.83190   0.17780   0.00000  Uiso   1.00
H444   H     0.09220   0.79560   0.22190   0.00000  Uiso   1.00
C445   C     0.48360   0.95740   0.68990   0.00000  Uiso   1.00
H446   H     0.46330   0.00010   0.65040   0.00000  Uiso   1.00
C447   C     0.17940   0.36950   0.53710   0.00000  Uiso   1.00
H448   H     0.16950   0.41110   0.55250   0.00000  Uiso   1.00
H449   H     0.21750   0.38380   0.49960   0.00000  Uiso   1.00
H450   H     0.13170   0.36040   0.52010   0.00000  Uiso   1.00
C451   C     0.50040   0.96780   0.74990   0.00000  Uiso   1.00
H452   H     0.49250   0.01710   0.75030   0.00000  Uiso   1.00
C453   C     0.09370   0.88910   0.05040   0.00000  Uiso   1.00
H454   H     0.07190   0.88960   0.00970   0.00000  Uiso   1.00
C455   C     0.69290   0.74220   0.65880   0.00000  Uiso   1.00
H456   H     0.68390   0.70930   0.63700   0.00000  Uiso   1.00
C457   C     0.68090   0.85650   0.54630   0.00000  Uiso   1.00
H458   H     0.63730   0.89460   0.53950   0.00000  Uiso   1.00
H459   H     0.72700   0.88260   0.52570   0.00000  Uiso   1.00
H460   H     0.67010   0.82290   0.52380   0.00000  Uiso   1.00
C461   C     0.07420   0.83420   0.11690   0.00000  Uiso   1.00
H462   H     0.03850   0.79840   0.12050   0.00000  Uiso   1.00
C463   C     0.70470   0.86600   0.65940   0.00000  Uiso   1.00
H464   H     0.75460   0.88740   0.64670   0.00000  Uiso   1.00
H465   H     0.66390   0.90770   0.64620   0.00000  Uiso   1.00
H466   H     0.70290   0.83550   0.70980   0.00000  Uiso   1.00
C467   C     0.22480   0.22950   0.58540   0.00000  Uiso   1.00
H468   H     0.22730   0.18560   0.63070   0.00000  Uiso   1.00
H469   H     0.18410   0.22450   0.55740   0.00000  Uiso   1.00
H470   H     0.27400   0.23120   0.56130   0.00000  Uiso   1.00
loop_
_geom_bond_atom_site_label_1
_geom_bond_atom_site_label_2
_geom_bond_distance
_geom_bond_site_symmetry_2
_ccdc_geom_bond_type
Sr1    O7      2.533   1_554 S
Sr1    O19     2.469   .     S
Sr1    O76     2.509   1_554 S
Sr1    O240    2.656   .     S
Sr1    O245    2.660   .     S
Sr1    O13     2.752   .     S
Sr1    O15     2.490   1_554 S
Sr1    O18     2.575   .     S
Sr2    O5      2.474   1_554 S
Sr2    O12     2.449   .     S
Sr2    O21     2.537   1_554 S
Sr2    O27     2.541   1_554 S
Sr2    O6      2.597   .     S
Sr2    O249    2.734   .     S
Sr2    O250    2.643   .     S
Sr2    O16     2.782   .     S
Sr3    O13     2.541   .     S
Sr3    O33     2.528   .     S
Sr3    O34     2.577   .     S
Sr3    O245    2.551   .     S
Sr3    O17     2.611   .     S
Sr3    O19     2.661   .     S
Sr3    O20     2.563   .     S
Sr3    O31     2.687   1_565 S
Sr4    O16     2.595   .     S
Sr4    O23     2.557   .     S
Sr4    O24     2.896   .     S
Sr4    O30     2.831   .     S
Sr4    O32     2.503   .     S
Sr4    O39     2.614   .     S
Sr4    O11     2.700   .     S
Sr4    O12     2.612   .     S
Sr4    O249    2.599   .     S
O5     Sr2     2.474   1_556 S
O5     C141    1.263   .     S
O5     Sr236   2.656   .     S
O6     C78     1.281   .     S
O7     Sr1     2.533   1_556 S
O7     H8      0.849   .     S
O7     H9      0.849   .     S
O10    C141    1.263   .     S
O10    Sr238   2.551   .     S
O10    Sr236   2.660   .     S
O11    C107    1.258   .     S
O12    C107    1.261   .     S
O13    C115    1.247   .     S
O14    C177    1.267   .     S
O14    Sr237   2.734   .     S
O14    Sr239   2.599   .     S
O15    C177    1.265   .     S
O15    Sr1     2.490   1_556 S
O15    Sr237   2.643   .     S
O16    C78     1.257   .     S
O17    C111    1.264   .     S
O18    C115    1.276   .     S
O19    C187    1.253   .     S
O20    C111    1.256   .     S
O21    Sr2     2.537   1_556 S
O21    H22     0.851   .     S
O23    C172    1.256   .     S
O24    H25     0.868   .     S
O24    H26     0.868   .     S
O27    Sr2     2.541   1_556 S
O27    H28     0.851   .     S
O27    H29     0.852   .     S
O30    C172    1.264   .     S
O31    C187    1.265   1_545 S
O31    Sr3     2.687   1_545 S
O32    C220    1.225   .     S
O33    C200    1.232   .     S
O34    H35     0.893   .     S
O34    H36     0.892   .     S
C37    C44     1.485   .     S
C37    C96     1.392   .     S
C37    C109    1.393   .     S
C38    C42     1.494   .     S
C38    C124    1.400   .     S
C38    C148    1.383   .     S
O39    H40     0.883   .     S
O39    H41     0.883   .     S
C42    C48     1.364   .     S
C42    C53     1.492   .     S
C43    C45     1.490   .     S
C43    C50     1.359   .     S
C43    C92     1.490   .     S
C44    C46     1.402   .     S
C44    C79     1.398   .     S
C45    C70     1.390   .     S
C45    C131    1.385   .     S
C46    H47     0.929   .     S
C46    C74     1.393   .     S
C48    C83     1.489   .     S
C48    C106    1.490   .     S
C49    C84     1.391   .     S
C49    C117    1.397   .     S
C49    C172    1.495   .     S
C50    C104    1.500   .     S
C50    C130    1.492   .     S
C51    H52     0.930   .     S
C51    C55     1.380   .     S
C51    C114    1.391   .     S
C53    C94     1.391   .     S
C53    C121    1.389   .     S
C54    C57     1.492   1_545 S
C54    C142    1.387   1_545 S
C54    C162    1.396   .     S
C55    H56     0.930   .     S
C55    C106    1.396   .     S
C57    C54     1.492   1_565 S
C57    C86     1.389   .     S
C57    C175    1.390   .     S
C58    C63     1.398   .     S
C58    C67     1.493   .     S
C58    C68     1.402   .     S
C59    H60     0.930   .     S
C59    C65     1.385   .     S
C59    C130    1.403   .     S
C61    H62     0.930   .     S
C61    C93     1.396   1_655 S
C61    C158    1.387   .     S
C63    H64     0.930   .     S
C63    C164    1.396   .     S
C65    H66     0.929   .     S
C65    C123    1.399   .     S
C67    C133    1.389   1_655 S
C67    C183    1.400   .     S
C68    H69     0.929   .     S
C68    C108    1.389   .     S
C70    H71     0.930   .     S
C70    C180    1.393   .     S
C72    C73     1.494   .     S
C72    C89     1.403   .     S
C72    C128    1.393   .     S
C73    C84     1.395   .     S
C73    C150    1.396   .     S
C74    H75     0.930   .     S
C74    C156    1.374   .     S
O76    Sr1     2.509   1_556 S
O76    H77     1.033   .     S
C78    C112    1.497   .     S
C79    H80     0.931   .     S
C79    C88     1.384   .     S
C81    H82     0.931   .     S
C81    C91     1.395   .     S
C81    C112    1.392   .     S
C83    C144    1.400   .     S
C83    C170    1.401   .     S
C84    H85     0.929   .     S
C86    H87     0.929   .     S
C86    C99     1.402   .     S
C88    C141    1.495   .     S
C88    C156    1.404   .     S
C89    H90     0.930   .     S
C89    C178    1.393   .     S
C91    C98     1.494   .     S
C91    C210    1.386   .     S
C92    C119    1.393   .     S
C92    C152    1.399   1_455 S
C93    C61     1.396   1_455 S
C93    C105    1.494   .     S
C93    C202    1.396   .     S
C94    H95     0.930   .     S
C94    C109    1.392   .     S
C96    H97     0.931   .     S
C96    C121    1.409   .     S
C98    C160    1.389   .     S
C98    C166    1.397   .     S
C99    C111    1.492   .     S
C99    C135    1.390   .     S
C100   H101    0.932   .     S
C100   C108    1.403   .     S
C100   C164    1.387   .     S
C102   H103    0.929   .     S
C102   C116    1.394   .     S
C102   C159    1.394   .     S
C104   C126    1.389   .     S
C104   C178    1.397   .     S
C105   C146    1.400   .     S
C105   C180    1.397   .     S
C106   C194    1.391   .     S
C107   C159    1.496   1_554 S
C108   C177    1.500   .     S
C109   H110    0.930   .     S
C112   C197    1.376   .     S
N113   C200    1.316   .     S
N113   C212    1.437   .     S
N113   C232    1.427   .     S
C114   C139    1.404   .     S
C114   C182    1.492   .     S
C115   C158    1.505   .     S
C116   C190    1.395   .     S
C116   C123    1.483   .     S
C117   H118    0.931   .     S
C117   C173    1.385   .     S
C119   H120    0.929   .     S
C119   C133    1.393   .     S
C121   H122    0.929   .     S
C123   C188    1.396   .     S
C124   H125    0.930   .     S
C124   C166    1.374   .     S
C126   H127    0.929   .     S
C126   C128    1.390   .     S
C128   H129    0.930   .     S
C130   C192    1.390   .     S
C131   H132    0.930   .     S
C131   C146    1.381   .     S
C133   C67     1.389   1_455 S
C133   H134    0.932   .     S
C135   H136    0.932   1_655 S
C135   C154    1.373   1_655 S
H136   C135    0.932   1_455 S
C137   H138    0.929   .     S
C137   C185    1.377   .     S
C137   C159    1.398   .     S
C139   H140    0.931   .     S
C139   C194    1.377   .     S
C142   C54     1.387   1_565 S
C142   H143    0.930   .     S
C142   C144    1.385   1_565 S
C144   C142    1.385   1_545 S
C144   H145    0.931   .     S
C146   H147    0.931   .     S
C148   H149    0.929   .     S
C148   C160    1.379   .     S
C150   H151    0.929   .     S
C150   C173    1.402   .     S
C152   C92     1.399   1_655 S
C152   H153    0.930   .     S
C152   C183    1.385   .     S
C154   C135    1.373   1_455 S
C154   H155    0.930   .     S
C154   C175    1.407   1_455 S
C156   H157    0.931   .     S
C158   C204    1.387   .     S
C159   C107    1.496   1_556 S
C160   H161    0.929   .     S
C162   H163    0.929   .     S
C162   C170    1.387   .     S
C164   H165    0.931   .     S
C166   H167    0.930   .     S
C168   H169    0.930   .     S
C168   C196    1.385   .     S
C168   C182    1.392   .     S
C170   H171    0.931   .     S
C173   H174    0.931   .     S
C175   H176    0.931   .     S
C175   C154    1.407   1_655 S
C178   H179    0.931   .     S
C180   H181    0.931   1_455 S
H181   C180    0.931   1_655 S
C182   C208    1.399   .     S
C183   H184    0.931   .     S
C185   H186    0.930   .     S
C185   C190    1.393   .     S
C187   O31     1.265   1_565 S
C187   C196    1.495   1_564 S
C188   H189    0.929   .     S
C188   C192    1.388   .     S
C190   H191    0.930   .     S
C192   H193    0.930   .     S
C194   H195    0.930   .     S
C196   C218    1.391   .     S
C196   C187    1.495   1_546 S
C197   H198    0.929   .     S
C197   C216    1.384   .     S
N199   C220    1.233   .     S
N199   C222    1.398   .     S
N199   C228    1.588   .     S
C200   H201    0.929   .     S
C202   H203    0.930   .     S
C202   C206    1.379   .     S
C204   H205    0.930   .     S
C204   C206    1.377   1_655 S
C206   H207    0.932   .     S
C206   C204    1.377   1_455 S
C208   H209    0.929   .     S
C208   C226    1.382   .     S
C210   H211    0.931   1_545 S
C210   C216    1.377   .     S
H211   C210    0.931   1_565 S
C212   H213    0.961   .     S
C212   H214    0.959   .     S
C212   H215    0.959   .     S
C216   H217    0.931   1_545 S
H217   C216    0.931   1_565 S
C218   H219    0.930   .     S
C218   C226    1.388   .     S
C220   H221    0.930   .     S
C222   H223    0.962   .     S
C222   H224    0.959   .     S
C222   H225    0.960   .     S
C226   H227    0.930   .     S
C228   H229    0.960   .     S
C228   H230    0.961   .     S
C228   H231    0.961   .     S
C232   H233    0.960   .     S
C232   H234    0.959   .     S
C232   H235    0.959   .     S
Sr236  O242    2.533   1_556 S
Sr236  O254    2.469   .     S
Sr236  O311    2.509   1_556 S
Sr236  O248    2.752   .     S
Sr236  O250    2.490   1_556 S
Sr236  O253    2.575   .     S
Sr237  O240    2.474   1_556 S
Sr237  O247    2.449   .     S
Sr237  O256    2.537   1_556 S
Sr237  O262    2.541   1_556 S
Sr237  O241    2.597   .     S
Sr237  O251    2.782   .     S
Sr238  O248    2.541   .     S
Sr238  O268    2.528   .     S
Sr238  O269    2.577   .     S
Sr238  O252    2.611   .     S
Sr238  O254    2.661   .     S
Sr238  O255    2.563   .     S
Sr238  O266    2.687   1_545 S
Sr239  O251    2.595   .     S
Sr239  O258    2.557   .     S
Sr239  O259    2.896   .     S
Sr239  O265    2.831   .     S
Sr239  O267    2.503   .     S
Sr239  O274    2.614   .     S
Sr239  O246    2.700   .     S
Sr239  O247    2.612   .     S
O240   Sr237   2.474   1_554 S
O240   C376    1.263   .     S
O241   C313    1.281   .     S
O242   Sr236   2.533   1_554 S
O242   H243    0.849   .     S
O242   H244    0.849   .     S
O245   C376    1.263   .     S
O246   C342    1.258   .     S
O247   C342    1.261   .     S
O248   C350    1.247   .     S
O249   C412    1.267   .     S
O250   C412    1.265   .     S
O250   Sr236   2.490   1_554 S
O251   C313    1.257   .     S
O252   C346    1.264   .     S
O253   C350    1.276   .     S
O254   C422    1.253   .     S
O255   C346    1.256   .     S
O256   Sr237   2.537   1_554 S
O256   H257    0.851   .     S
O258   C407    1.256   .     S
O259   H260    0.868   .     S
O259   H261    0.868   .     S
O262   Sr237   2.541   1_554 S
O262   H263    0.851   .     S
O262   H264    0.852   .     S
O265   C407    1.264   .     S
O266   C422    1.265   1_565 S
O266   Sr238   2.687   1_565 S
O267   C455    1.225   .     S
O268   C435    1.232   .     S
O269   H270    0.893   .     S
O269   H271    0.892   .     S
C272   C279    1.485   .     S
C272   C331    1.392   .     S
C272   C344    1.393   .     S
C273   C277    1.494   .     S
C273   C359    1.400   .     S
C273   C383    1.383   .     S
O274   H275    0.883   .     S
O274   H276    0.883   .     S
C277   C283    1.364   .     S
C277   C288    1.492   .     S
C278   C280    1.490   .     S
C278   C285    1.359   .     S
C278   C327    1.490   .     S
C279   C281    1.402   .     S
C279   C314    1.398   .     S
C280   C305    1.390   .     S
C280   C366    1.385   .     S
C281   H282    0.929   .     S
C281   C309    1.393   .     S
C283   C318    1.489   .     S
C283   C341    1.490   .     S
C284   C319    1.391   .     S
C284   C352    1.397   .     S
C284   C407    1.495   .     S
C285   C339    1.500   .     S
C285   C365    1.492   .     S
C286   H287    0.930   .     S
C286   C290    1.380   .     S
C286   C349    1.391   .     S
C288   C329    1.391   .     S
C288   C356    1.389   .     S
C289   C292    1.492   1_565 S
C289   C377    1.387   1_565 S
C289   C397    1.396   .     S
C290   H291    0.930   .     S
C290   C341    1.396   .     S
C292   C289    1.492   1_545 S
C292   C321    1.389   .     S
C292   C410    1.390   .     S
C293   C298    1.398   .     S
C293   C302    1.493   .     S
C293   C303    1.402   .     S
C294   H295    0.930   .     S
C294   C300    1.385   .     S
C294   C365    1.403   .     S
C296   H297    0.930   .     S
C296   C328    1.396   1_455 S
C296   C393    1.387   .     S
C298   H299    0.930   .     S
C298   C399    1.396   .     S
C300   H301    0.929   .     S
C300   C358    1.399   .     S
C302   C368    1.389   1_455 S
C302   C418    1.400   .     S
C303   H304    0.929   .     S
C303   C343    1.389   .     S
C305   H306    0.930   .     S
C305   C415    1.393   .     S
C307   C308    1.494   .     S
C307   C324    1.403   .     S
C307   C363    1.393   .     S
C308   C319    1.395   .     S
C308   C385    1.396   .     S
C309   H310    0.930   .     S
C309   C391    1.374   .     S
O311   Sr236   2.509   1_554 S
O311   H312    1.033   .     S
C313   C347    1.497   .     S
C314   H315    0.931   .     S
C314   C323    1.384   .     S
C316   H317    0.931   .     S
C316   C326    1.395   .     S
C316   C347    1.392   .     S
C318   C379    1.400   .     S
C318   C405    1.401   .     S
C319   H320    0.929   .     S
C321   H322    0.929   .     S
C321   C334    1.402   .     S
C323   C376    1.495   .     S
C323   C391    1.404   .     S
C324   H325    0.930   .     S
C324   C413    1.393   .     S
C326   C333    1.494   .     S
C326   C445    1.386   .     S
C327   C354    1.393   .     S
C327   C387    1.399   1_655 S
C328   C296    1.396   1_655 S
C328   C340    1.494   .     S
C328   C437    1.396   .     S
C329   H330    0.930   .     S
C329   C344    1.392   .     S
C331   H332    0.931   .     S
C331   C356    1.409   .     S
C333   C395    1.389   .     S
C333   C401    1.397   .     S
C334   C346    1.492   .     S
C334   C370    1.390   .     S
C335   H336    0.932   .     S
C335   C343    1.403   .     S
C335   C399    1.387   .     S
C337   H338    0.929   .     S
C337   C351    1.394   .     S
C337   C394    1.394   .     S
C339   C361    1.389   .     S
C339   C413    1.397   .     S
C340   C381    1.400   .     S
C340   C415    1.397   .     S
C341   C429    1.391   .     S
C342   C394    1.496   1_556 S
C343   C412    1.500   .     S
C344   H345    0.930   .     S
C347   C432    1.376   .     S
N348   C435    1.316   .     S
N348   C447    1.437   .     S
N348   C467    1.427   .     S
C349   C374    1.404   .     S
C349   C417    1.492   .     S
C350   C393    1.505   .     S
C351   C425    1.395   .     S
C351   C358    1.483   .     S
C352   H353    0.931   .     S
C352   C408    1.385   .     S
C354   H355    0.929   .     S
C354   C368    1.393   .     S
C356   H357    0.929   .     S
C358   C423    1.396   .     S
C359   H360    0.930   .     S
C359   C401    1.374   .     S
C361   H362    0.929   .     S
C361   C363    1.390   .     S
C363   H364    0.930   .     S
C365   C427    1.390   .     S
C366   H367    0.930   .     S
C366   C381    1.381   .     S
C368   C302    1.389   1_655 S
C368   H369    0.932   .     S
C370   H371    0.932   1_455 S
C370   C389    1.373   1_455 S
H371   C370    0.932   1_655 S
C372   H373    0.929   .     S
C372   C420    1.377   .     S
C372   C394    1.398   .     S
C374   H375    0.931   .     S
C374   C429    1.377   .     S
C377   C289    1.387   1_545 S
C377   H378    0.930   .     S
C377   C379    1.385   1_545 S
C379   C377    1.385   1_565 S
C379   H380    0.931   .     S
C381   H382    0.931   .     S
C383   H384    0.929   .     S
C383   C395    1.379   .     S
C385   H386    0.929   .     S
C385   C408    1.402   .     S
C387   C327    1.399   1_455 S
C387   H388    0.930   .     S
C387   C418    1.385   .     S
C389   C370    1.373   1_655 S
C389   H390    0.930   .     S
C389   C410    1.407   1_655 S
C391   H392    0.931   .     S
C393   C439    1.387   .     S
C394   C342    1.496   1_554 S
C395   H396    0.929   .     S
C397   H398    0.929   .     S
C397   C405    1.387   .     S
C399   H400    0.931   .     S
C401   H402    0.930   .     S
C403   H404    0.930   .     S
C403   C431    1.385   .     S
C403   C417    1.392   .     S
C405   H406    0.931   .     S
C408   H409    0.931   .     S
C410   H411    0.931   .     S
C410   C389    1.407   1_455 S
C413   H414    0.931   .     S
C415   H416    0.931   1_655 S
H416   C415    0.931   1_455 S
C417   C443    1.399   .     S
C418   H419    0.931   .     S
C420   H421    0.930   .     S
C420   C425    1.393   .     S
C422   O266    1.265   1_545 S
C422   C431    1.495   1_546 S
C423   H424    0.929   .     S
C423   C427    1.388   .     S
C425   H426    0.930   .     S
C427   H428    0.930   .     S
C429   H430    0.930   .     S
C431   C453    1.391   .     S
C431   C422    1.495   1_564 S
C432   H433    0.929   .     S
C432   C451    1.384   .     S
N434   C455    1.233   .     S
N434   C457    1.398   .     S
N434   C463    1.588   .     S
C435   H436    0.929   .     S
C437   H438    0.930   .     S
C437   C441    1.379   .     S
C439   H440    0.930   .     S
C439   C441    1.377   1_455 S
C441   H442    0.932   .     S
C441   C439    1.377   1_655 S
C443   H444    0.929   .     S
C443   C461    1.382   .     S
C445   H446    0.931   1_565 S
C445   C451    1.377   .     S
H446   C445    0.931   1_545 S
C447   H448    0.961   .     S
C447   H449    0.959   .     S
C447   H450    0.959   .     S
C451   H452    0.931   1_565 S
H452   C451    0.931   1_545 S
C453   H454    0.930   .     S
C453   C461    1.388   .     S
C455   H456    0.930   .     S
C457   H458    0.962   .     S
C457   H459    0.959   .     S
C457   H460    0.960   .     S
C461   H462    0.930   .     S
C463   H464    0.960   .     S
C463   H465    0.961   .     S
C463   H466    0.961   .     S
C467   H468    0.960   .     S
C467   H469    0.959   .     S
C467   H470    0.959   .     S
