data_RIFTOT_FSR
_audit_creation_date              2024-06-11
_audit_creation_method            'Materials Studio'
_symmetry_space_group_name_H-M    'P1'
_symmetry_Int_Tables_number       1
_symmetry_cell_setting            triclinic
loop_
_symmetry_equiv_pos_as_xyz
  x,y,z
_cell_length_a                    16.1580
_cell_length_b                    28.9230
_cell_length_c                    21.9600
_cell_angle_alpha                 90.0000
_cell_angle_beta                  95.8370
_cell_angle_gamma                 90.0000
loop_
_atom_site_label
_atom_site_type_symbol
_atom_site_fract_x
_atom_site_fract_y
_atom_site_fract_z
_atom_site_U_iso_or_equiv
_atom_site_adp_type
_atom_site_occupancy
Mo1    Mo    0.09586   0.48587   0.39226   0.00000  Uiso   1.00
Mo2    Mo    0.87466   0.28155   0.28867   0.00000  Uiso   1.00
Mo3    Mo    0.97422   0.36249   0.20756   0.00000  Uiso   1.00
Mo4    Mo    0.80555   0.41647   0.44661   0.00000  Uiso   1.00
Mo5    Mo    0.09753   0.28416   0.29186   0.00000  Uiso   1.00
Mo6    Mo    0.80423   0.29976   0.38789   0.00000  Uiso   1.00
Mo7    Mo    0.10865   0.33231   0.52808   0.00000  Uiso   1.00
Mo8    Mo    0.18864   0.42253   0.45119   0.00000  Uiso   1.00
Mo9    Mo    0.18779   0.30556   0.39323   0.00000  Uiso   1.00
Mo10   Mo    0.87831   0.48255   0.39011   0.00000  Uiso   1.00
Mo11   Mo    0.91144   0.32821   0.52544   0.00000  Uiso   1.00
Mo12   Mo    0.97245   0.46601   0.25835   0.00000  Uiso   1.00
Zn13   Zn    0.15782   0.40301   0.28604   0.00000  Uiso   1.00
Zn14   Zn    0.00244   0.25057   0.43072   0.00000  Uiso   1.00
Zn15   Zn    0.00504   0.43895   0.52681   0.00000  Uiso   1.00
Zn16   Zn    0.80032   0.39819   0.28054   0.00000  Uiso   1.00
P17    P     0.99136   0.37158   0.37988   0.00000  Uiso   1.00
O18    O     0.98740   0.51620   0.40600   0.00000  Uiso   1.00
O19    O     0.06150   0.32160   0.21770   0.00000  Uiso   1.00
O20    O     0.80540   0.33330   0.31060   0.00000  Uiso   1.00
O21    O     0.72480   0.26300   0.38020   0.00000  Uiso   1.00
O22    O     0.63790   0.38650   0.32120   0.00000  Uiso   1.00
O23    O     0.00950   0.29320   0.49970   0.00000  Uiso   1.00
O24    O     0.69270   0.40750   0.23390   0.00000  Uiso   1.00
O25    O     0.08880   0.45570   0.47030   0.00000  Uiso   1.00
O26    O     0.33180   0.39370   0.32690   0.00000  Uiso   1.00
O27    O     0.45090   0.43720   0.08270   0.00000  Uiso   1.00
O28    O     0.07620   0.36140   0.41850   0.00000  Uiso   1.00
O29    O     0.16570   0.43650   0.36400   0.00000  Uiso   1.00
O30    O     0.15840   0.24390   0.26280   0.00000  Uiso   1.00
O31    O     0.25000   0.36590   0.42080   0.00000  Uiso   1.00
O32    O     0.90650   0.45320   0.46990   0.00000  Uiso   1.00
O33    O     0.25290   0.41290   0.24250   0.00000  Uiso   1.00
O34    O     0.90180   0.26350   0.37480   0.00000  Uiso   1.00
O35    O     0.89160   0.31910   0.21390   0.00000  Uiso   1.00
O36    O     0.84320   0.37850   0.52060   0.00000  Uiso   1.00
O37    O     0.74040   0.35740   0.41360   0.00000  Uiso   1.00
O38    O     0.16890   0.29630   0.48090   0.00000  Uiso   1.00
O39    O     0.96830   0.37380   0.13200   0.00000  Uiso   1.00
O40    O     0.98770   0.34170   0.32010   0.00000  Uiso   1.00
O41    O     0.15900   0.53130   0.40320   0.00000  Uiso   1.00
O42    O     0.26990   0.27140   0.38810   0.00000  Uiso   1.00
O43    O     0.04820   0.41360   0.24180   0.00000  Uiso   1.00
O44    O     0.27280   0.45400   0.47740   0.00000  Uiso   1.00
O45    O     0.13230   0.31100   0.59830   0.00000  Uiso   1.00
O46    O     0.16990   0.38410   0.52470   0.00000  Uiso   1.00
O47    O     0.89180   0.49150   0.29960   0.00000  Uiso   1.00
O48    O     0.96430   0.49450   0.19020   0.00000  Uiso   1.00
O49    O     0.90360   0.30700   0.59590   0.00000  Uiso   1.00
O50    O     0.09260   0.26580   0.37650   0.00000  Uiso   1.00
O51    O     0.80780   0.43210   0.35940   0.00000  Uiso   1.00
O52    O     0.81340   0.52640   0.39990   0.00000  Uiso   1.00
O53    O     0.84320   0.28970   0.47630   0.00000  Uiso   1.00
O54    O     0.16770   0.33730   0.31520   0.00000  Uiso   1.00
O55    O     0.98860   0.24910   0.27600   0.00000  Uiso   1.00
O56    O     0.80830   0.24240   0.25720   0.00000  Uiso   1.00
O57    O     0.48440   0.68430   0.05760   0.00000  Uiso   1.00
O58    O     0.05990   0.49340   0.30210   0.00000  Uiso   1.00
O59    O     0.49830   0.67260   0.15890   0.00000  Uiso   1.00
O60    O     0.98670   0.42400   0.36270   0.00000  Uiso   1.00
O61    O     0.89910   0.40960   0.23790   0.00000  Uiso   1.00
O62    O     0.91640   0.35900   0.41520   0.00000  Uiso   1.00
O63    O     0.72550   0.44430   0.47060   0.00000  Uiso   1.00
O64    O     0.00910   0.37160   0.53880   0.00000  Uiso   1.00
C65    C     0.40010   0.41130   0.23800   0.00000  Uiso   1.00
C66    C     0.38700   0.46910   0.05850   0.00000  Uiso   1.00
H67    H     0.33502   0.46248   0.07717   0.00000  Uiso   1.00
H68    H     0.37578   0.46433   0.01376   0.00000  Uiso   1.00
C69    C     0.48240   0.66050   0.10340   0.00000  Uiso   1.00
C70    C     0.45850   0.42560   0.14390   0.00000  Uiso   1.00
C71    C     0.46150   0.60930   0.09500   0.00000  Uiso   1.00
C72    C     0.47650   0.40190   0.26660   0.00000  Uiso   1.00
H73    H     0.48242   0.39182   0.30800   0.00000  Uiso   1.00
C74    C     0.43930   0.58190   0.14170   0.00000  Uiso   1.00
H75    H     0.44266   0.59345   0.18242   0.00000  Uiso   1.00
C76    C     0.39040   0.42220   0.17680   0.00000  Uiso   1.00
H77    H     0.33617   0.42744   0.15698   0.00000  Uiso   1.00
C78    C     0.41160   0.53680   0.12880   0.00000  Uiso   1.00
H79    H     0.39258   0.51853   0.16049   0.00000  Uiso   1.00
C80    C     0.32520   0.40430   0.27430   0.00000  Uiso   1.00
C81    C     0.43520   0.54580   0.02500   0.00000  Uiso   1.00
H82    H     0.43459   0.53350   0.98487   0.00000  Uiso   1.00
C83    C     0.54550   0.40710   0.23520   0.00000  Uiso   1.00
C84    C     0.46020   0.59090   0.03560   0.00000  Uiso   1.00
H85    H     0.47642   0.60940   0.00311   0.00000  Uiso   1.00
C86    C     0.53450   0.41990   0.17250   0.00000  Uiso   1.00
H87    H     0.58170   0.42435   0.15070   0.00000  Uiso   1.00
C88    C     0.63170   0.40000   0.26710   0.00000  Uiso   1.00
C89    C     0.41150   0.51850   0.07070   0.00000  Uiso   1.00
Mo90   Mo    0.40414   0.98587   0.10774   0.00000  Uiso   1.00
Mo91   Mo    0.62534   0.78155   0.21133   0.00000  Uiso   1.00
Mo92   Mo    0.52578   0.86249   0.29244   0.00000  Uiso   1.00
Mo93   Mo    0.69445   0.91647   0.05339   0.00000  Uiso   1.00
Mo94   Mo    0.40247   0.78416   0.20814   0.00000  Uiso   1.00
Mo95   Mo    0.69577   0.79976   0.11211   0.00000  Uiso   1.00
Mo96   Mo    0.39135   0.83231   0.97192   0.00000  Uiso   1.00
Mo97   Mo    0.31136   0.92253   0.04881   0.00000  Uiso   1.00
Mo98   Mo    0.31221   0.80556   0.10677   0.00000  Uiso   1.00
Mo99   Mo    0.62169   0.98255   0.10989   0.00000  Uiso   1.00
Mo100  Mo    0.58856   0.82821   0.97456   0.00000  Uiso   1.00
Mo101  Mo    0.52755   0.96601   0.24165   0.00000  Uiso   1.00
Zn102  Zn    0.34218   0.90301   0.21396   0.00000  Uiso   1.00
Zn103  Zn    0.49756   0.75057   0.06928   0.00000  Uiso   1.00
Zn104  Zn    0.49496   0.93895   0.97319   0.00000  Uiso   1.00
Zn105  Zn    0.69968   0.89819   0.21946   0.00000  Uiso   1.00
P106   P     0.50864   0.87158   0.12012   0.00000  Uiso   1.00
O107   O     0.51260   0.01620   0.09400   0.00000  Uiso   1.00
O108   O     0.43850   0.82160   0.28230   0.00000  Uiso   1.00
O109   O     0.69460   0.83330   0.18940   0.00000  Uiso   1.00
O110   O     0.77520   0.76300   0.11980   0.00000  Uiso   1.00
O111   O     0.86210   0.88650   0.17880   0.00000  Uiso   1.00
O112   O     0.49050   0.79320   0.00030   0.00000  Uiso   1.00
O113   O     0.80730   0.90750   0.26610   0.00000  Uiso   1.00
O114   O     0.41120   0.95570   0.02970   0.00000  Uiso   1.00
O115   O     0.16820   0.89370   0.17310   0.00000  Uiso   1.00
O116   O     0.04910   0.93720   0.41730   0.00000  Uiso   1.00
O117   O     0.42380   0.86140   0.08150   0.00000  Uiso   1.00
O118   O     0.33430   0.93650   0.13600   0.00000  Uiso   1.00
O119   O     0.34160   0.74390   0.23720   0.00000  Uiso   1.00
O120   O     0.25000   0.86590   0.07920   0.00000  Uiso   1.00
O121   O     0.59350   0.95320   0.03010   0.00000  Uiso   1.00
O122   O     0.24710   0.91290   0.25750   0.00000  Uiso   1.00
O123   O     0.59820   0.76350   0.12520   0.00000  Uiso   1.00
O124   O     0.60840   0.81910   0.28610   0.00000  Uiso   1.00
O125   O     0.65680   0.87850   0.97940   0.00000  Uiso   1.00
O126   O     0.75960   0.85740   0.08640   0.00000  Uiso   1.00
O127   O     0.33110   0.79630   0.01910   0.00000  Uiso   1.00
O128   O     0.53170   0.87380   0.36800   0.00000  Uiso   1.00
O129   O     0.51230   0.84170   0.17990   0.00000  Uiso   1.00
O130   O     0.34100   0.03130   0.09680   0.00000  Uiso   1.00
O131   O     0.23010   0.77140   0.11190   0.00000  Uiso   1.00
O132   O     0.45180   0.91360   0.25820   0.00000  Uiso   1.00
O133   O     0.22720   0.95400   0.02260   0.00000  Uiso   1.00
O134   O     0.36770   0.81100   0.90170   0.00000  Uiso   1.00
O135   O     0.33010   0.88410   0.97530   0.00000  Uiso   1.00
O136   O     0.60820   0.99150   0.20040   0.00000  Uiso   1.00
O137   O     0.53570   0.99450   0.30980   0.00000  Uiso   1.00
O138   O     0.59640   0.80700   0.90410   0.00000  Uiso   1.00
O139   O     0.40740   0.76580   0.12350   0.00000  Uiso   1.00
O140   O     0.69220   0.93210   0.14060   0.00000  Uiso   1.00
O141   O     0.68660   0.02640   0.10010   0.00000  Uiso   1.00
O142   O     0.65680   0.78970   0.02370   0.00000  Uiso   1.00
O143   O     0.33230   0.83730   0.18480   0.00000  Uiso   1.00
O144   O     0.51140   0.74910   0.22400   0.00000  Uiso   1.00
O145   O     0.69170   0.74240   0.24280   0.00000  Uiso   1.00
O146   O     0.01560   0.18430   0.44240   0.00000  Uiso   1.00
O147   O     0.44010   0.99340   0.19790   0.00000  Uiso   1.00
O148   O     0.00170   0.17260   0.34110   0.00000  Uiso   1.00
O149   O     0.51330   0.92400   0.13730   0.00000  Uiso   1.00
O150   O     0.60090   0.90960   0.26210   0.00000  Uiso   1.00
O151   O     0.58360   0.85900   0.08480   0.00000  Uiso   1.00
O152   O     0.77450   0.94430   0.02940   0.00000  Uiso   1.00
O153   O     0.49090   0.87160   0.96120   0.00000  Uiso   1.00
C154   C     0.09990   0.91130   0.26200   0.00000  Uiso   1.00
C155   C     0.11300   0.96910   0.44150   0.00000  Uiso   1.00
H156   H     0.16498   0.96248   0.42283   0.00000  Uiso   1.00
H157   H     0.12422   0.96433   0.48624   0.00000  Uiso   1.00
C158   C     0.01760   0.16050   0.39660   0.00000  Uiso   1.00
C159   C     0.04150   0.92560   0.35610   0.00000  Uiso   1.00
C160   C     0.03850   0.10930   0.40500   0.00000  Uiso   1.00
C161   C     0.02350   0.90190   0.23340   0.00000  Uiso   1.00
H162   H     0.01758   0.89182   0.19200   0.00000  Uiso   1.00
C163   C     0.06070   0.08190   0.35830   0.00000  Uiso   1.00
H164   H     0.05734   0.09345   0.31758   0.00000  Uiso   1.00
C165   C     0.10960   0.92220   0.32320   0.00000  Uiso   1.00
H166   H     0.16383   0.92744   0.34302   0.00000  Uiso   1.00
C167   C     0.08840   0.03680   0.37120   0.00000  Uiso   1.00
H168   H     0.10742   0.01853   0.33951   0.00000  Uiso   1.00
C169   C     0.17480   0.90430   0.22570   0.00000  Uiso   1.00
C170   C     0.06480   0.04580   0.47500   0.00000  Uiso   1.00
H171   H     0.06541   0.03350   0.51513   0.00000  Uiso   1.00
C172   C     0.95450   0.90710   0.26480   0.00000  Uiso   1.00
C173   C     0.03980   0.09090   0.46440   0.00000  Uiso   1.00
H174   H     0.02358   0.10940   0.49689   0.00000  Uiso   1.00
C175   C     0.96550   0.91990   0.32750   0.00000  Uiso   1.00
H176   H     0.91830   0.92435   0.34930   0.00000  Uiso   1.00
C177   C     0.86830   0.90000   0.23290   0.00000  Uiso   1.00
C178   C     0.08850   0.01850   0.42930   0.00000  Uiso   1.00
Mo179  Mo    0.90414   0.51413   0.60774   0.00000  Uiso   1.00
Mo180  Mo    0.12534   0.71845   0.71133   0.00000  Uiso   1.00
Mo181  Mo    0.02578   0.63751   0.79244   0.00000  Uiso   1.00
Mo182  Mo    0.19445   0.58353   0.55339   0.00000  Uiso   1.00
Mo183  Mo    0.90247   0.71584   0.70814   0.00000  Uiso   1.00
Mo184  Mo    0.19577   0.70024   0.61211   0.00000  Uiso   1.00
Mo185  Mo    0.89135   0.66769   0.47192   0.00000  Uiso   1.00
Mo186  Mo    0.81136   0.57747   0.54881   0.00000  Uiso   1.00
Mo187  Mo    0.81221   0.69444   0.60677   0.00000  Uiso   1.00
Mo188  Mo    0.12169   0.51745   0.60989   0.00000  Uiso   1.00
Mo189  Mo    0.08856   0.67179   0.47456   0.00000  Uiso   1.00
Mo190  Mo    0.02755   0.53399   0.74165   0.00000  Uiso   1.00
Zn191  Zn    0.84218   0.59699   0.71396   0.00000  Uiso   1.00
Zn192  Zn    0.99756   0.74943   0.56928   0.00000  Uiso   1.00
Zn193  Zn    0.99496   0.56105   0.47319   0.00000  Uiso   1.00
Zn194  Zn    0.19968   0.60181   0.71946   0.00000  Uiso   1.00
P195   P     0.00864   0.62842   0.62012   0.00000  Uiso   1.00
O196   O     0.01260   0.48380   0.59400   0.00000  Uiso   1.00
O197   O     0.93850   0.67840   0.78230   0.00000  Uiso   1.00
O198   O     0.19460   0.66670   0.68940   0.00000  Uiso   1.00
O199   O     0.27520   0.73700   0.61980   0.00000  Uiso   1.00
O200   O     0.36210   0.61350   0.67880   0.00000  Uiso   1.00
O201   O     0.99050   0.70680   0.50030   0.00000  Uiso   1.00
O202   O     0.30730   0.59250   0.76610   0.00000  Uiso   1.00
O203   O     0.91120   0.54430   0.52970   0.00000  Uiso   1.00
O204   O     0.66820   0.60630   0.67310   0.00000  Uiso   1.00
O205   O     0.54910   0.56280   0.91730   0.00000  Uiso   1.00
O206   O     0.92380   0.63860   0.58150   0.00000  Uiso   1.00
O207   O     0.83430   0.56350   0.63600   0.00000  Uiso   1.00
O208   O     0.84160   0.75610   0.73720   0.00000  Uiso   1.00
O209   O     0.75000   0.63410   0.57920   0.00000  Uiso   1.00
O210   O     0.09350   0.54680   0.53010   0.00000  Uiso   1.00
O211   O     0.74710   0.58710   0.75750   0.00000  Uiso   1.00
O212   O     0.09820   0.73650   0.62520   0.00000  Uiso   1.00
O213   O     0.10840   0.68090   0.78610   0.00000  Uiso   1.00
O214   O     0.15680   0.62150   0.47940   0.00000  Uiso   1.00
O215   O     0.25960   0.64260   0.58640   0.00000  Uiso   1.00
O216   O     0.83110   0.70370   0.51910   0.00000  Uiso   1.00
O217   O     0.03170   0.62620   0.86800   0.00000  Uiso   1.00
O218   O     0.01230   0.65830   0.67990   0.00000  Uiso   1.00
O219   O     0.84100   0.46870   0.59680   0.00000  Uiso   1.00
O220   O     0.73010   0.72860   0.61190   0.00000  Uiso   1.00
O221   O     0.95180   0.58640   0.75820   0.00000  Uiso   1.00
O222   O     0.72720   0.54600   0.52260   0.00000  Uiso   1.00
O223   O     0.86770   0.68900   0.40170   0.00000  Uiso   1.00
O224   O     0.83010   0.61590   0.47530   0.00000  Uiso   1.00
O225   O     0.10820   0.50850   0.70040   0.00000  Uiso   1.00
O226   O     0.03570   0.50550   0.80980   0.00000  Uiso   1.00
O227   O     0.09640   0.69300   0.40410   0.00000  Uiso   1.00
O228   O     0.90740   0.73420   0.62350   0.00000  Uiso   1.00
O229   O     0.19220   0.56790   0.64060   0.00000  Uiso   1.00
O230   O     0.18660   0.47360   0.60010   0.00000  Uiso   1.00
O231   O     0.15680   0.71030   0.52370   0.00000  Uiso   1.00
O232   O     0.83230   0.66270   0.68480   0.00000  Uiso   1.00
O233   O     0.01140   0.75090   0.72400   0.00000  Uiso   1.00
O234   O     0.19170   0.75760   0.74280   0.00000  Uiso   1.00
O235   O     0.51560   0.31570   0.94240   0.00000  Uiso   1.00
O236   O     0.94010   0.50660   0.69790   0.00000  Uiso   1.00
O237   O     0.50170   0.32740   0.84110   0.00000  Uiso   1.00
O238   O     0.01330   0.57600   0.63730   0.00000  Uiso   1.00
O239   O     0.10090   0.59040   0.76210   0.00000  Uiso   1.00
O240   O     0.08360   0.64100   0.58480   0.00000  Uiso   1.00
O241   O     0.27450   0.55570   0.52940   0.00000  Uiso   1.00
O242   O     0.99090   0.62840   0.46120   0.00000  Uiso   1.00
C243   C     0.59990   0.58870   0.76200   0.00000  Uiso   1.00
C244   C     0.61300   0.53090   0.94150   0.00000  Uiso   1.00
H245   H     0.66498   0.53752   0.92283   0.00000  Uiso   1.00
H246   H     0.62422   0.53567   0.98624   0.00000  Uiso   1.00
C247   C     0.51760   0.33950   0.89660   0.00000  Uiso   1.00
C248   C     0.54150   0.57440   0.85610   0.00000  Uiso   1.00
C249   C     0.53850   0.39070   0.90500   0.00000  Uiso   1.00
C250   C     0.52350   0.59810   0.73340   0.00000  Uiso   1.00
H251   H     0.51758   0.60818   0.69200   0.00000  Uiso   1.00
C252   C     0.56070   0.41810   0.85830   0.00000  Uiso   1.00
H253   H     0.55734   0.40655   0.81758   0.00000  Uiso   1.00
C254   C     0.60960   0.57780   0.82320   0.00000  Uiso   1.00
H255   H     0.66383   0.57256   0.84302   0.00000  Uiso   1.00
C256   C     0.58840   0.46320   0.87120   0.00000  Uiso   1.00
H257   H     0.60742   0.48147   0.83951   0.00000  Uiso   1.00
C258   C     0.67480   0.59570   0.72570   0.00000  Uiso   1.00
C259   C     0.56480   0.45420   0.97500   0.00000  Uiso   1.00
H260   H     0.56541   0.46650   0.01513   0.00000  Uiso   1.00
C261   C     0.45450   0.59290   0.76480   0.00000  Uiso   1.00
C262   C     0.53980   0.40910   0.96440   0.00000  Uiso   1.00
H263   H     0.52358   0.39060   0.99689   0.00000  Uiso   1.00
C264   C     0.46550   0.58010   0.82750   0.00000  Uiso   1.00
H265   H     0.41830   0.57565   0.84930   0.00000  Uiso   1.00
C266   C     0.36830   0.60000   0.73290   0.00000  Uiso   1.00
C267   C     0.58850   0.48150   0.92930   0.00000  Uiso   1.00
Mo268  Mo    0.59586   0.01413   0.89226   0.00000  Uiso   1.00
Mo269  Mo    0.37466   0.21845   0.78867   0.00000  Uiso   1.00
Mo270  Mo    0.47422   0.13751   0.70756   0.00000  Uiso   1.00
Mo271  Mo    0.30555   0.08353   0.94661   0.00000  Uiso   1.00
Mo272  Mo    0.59753   0.21584   0.79186   0.00000  Uiso   1.00
Mo273  Mo    0.30423   0.20024   0.88789   0.00000  Uiso   1.00
Mo274  Mo    0.60865   0.16769   0.02808   0.00000  Uiso   1.00
Mo275  Mo    0.68864   0.07747   0.95119   0.00000  Uiso   1.00
Mo276  Mo    0.68779   0.19444   0.89323   0.00000  Uiso   1.00
Mo277  Mo    0.37831   0.01745   0.89011   0.00000  Uiso   1.00
Mo278  Mo    0.41144   0.17179   0.02544   0.00000  Uiso   1.00
Mo279  Mo    0.47245   0.03399   0.75835   0.00000  Uiso   1.00
Zn280  Zn    0.65782   0.09699   0.78604   0.00000  Uiso   1.00
Zn281  Zn    0.50244   0.24943   0.93072   0.00000  Uiso   1.00
Zn282  Zn    0.50504   0.06105   0.02681   0.00000  Uiso   1.00
Zn283  Zn    0.30032   0.10181   0.78054   0.00000  Uiso   1.00
P284   P     0.49136   0.12842   0.87988   0.00000  Uiso   1.00
O285   O     0.48740   0.98380   0.90600   0.00000  Uiso   1.00
O286   O     0.56150   0.17840   0.71770   0.00000  Uiso   1.00
O287   O     0.30540   0.16670   0.81060   0.00000  Uiso   1.00
O288   O     0.22480   0.23700   0.88020   0.00000  Uiso   1.00
O289   O     0.13790   0.11350   0.82120   0.00000  Uiso   1.00
O290   O     0.50950   0.20680   0.99970   0.00000  Uiso   1.00
O291   O     0.19270   0.09250   0.73390   0.00000  Uiso   1.00
O292   O     0.58880   0.04430   0.97030   0.00000  Uiso   1.00
O293   O     0.83180   0.10630   0.82690   0.00000  Uiso   1.00
O294   O     0.95090   0.06280   0.58270   0.00000  Uiso   1.00
O295   O     0.57620   0.13860   0.91850   0.00000  Uiso   1.00
O296   O     0.66570   0.06350   0.86400   0.00000  Uiso   1.00
O297   O     0.65840   0.25610   0.76280   0.00000  Uiso   1.00
O298   O     0.75000   0.13410   0.92080   0.00000  Uiso   1.00
O299   O     0.40650   0.04680   0.96990   0.00000  Uiso   1.00
O300   O     0.75290   0.08710   0.74250   0.00000  Uiso   1.00
O301   O     0.40180   0.23650   0.87480   0.00000  Uiso   1.00
O302   O     0.39160   0.18090   0.71390   0.00000  Uiso   1.00
O303   O     0.34320   0.12150   0.02060   0.00000  Uiso   1.00
O304   O     0.24040   0.14260   0.91360   0.00000  Uiso   1.00
O305   O     0.66890   0.20370   0.98090   0.00000  Uiso   1.00
O306   O     0.46830   0.12620   0.63200   0.00000  Uiso   1.00
O307   O     0.48770   0.15830   0.82010   0.00000  Uiso   1.00
O308   O     0.65900   0.96870   0.90320   0.00000  Uiso   1.00
O309   O     0.76990   0.22860   0.88810   0.00000  Uiso   1.00
O310   O     0.54820   0.08640   0.74180   0.00000  Uiso   1.00
O311   O     0.77280   0.04600   0.97740   0.00000  Uiso   1.00
O312   O     0.63230   0.18900   0.09830   0.00000  Uiso   1.00
O313   O     0.66990   0.11590   0.02470   0.00000  Uiso   1.00
O314   O     0.39180   0.00850   0.79960   0.00000  Uiso   1.00
O315   O     0.46430   0.00550   0.69020   0.00000  Uiso   1.00
O316   O     0.40360   0.19300   0.09590   0.00000  Uiso   1.00
O317   O     0.59260   0.23420   0.87650   0.00000  Uiso   1.00
O318   O     0.30780   0.06790   0.85940   0.00000  Uiso   1.00
O319   O     0.31340   0.97360   0.89990   0.00000  Uiso   1.00
O320   O     0.34320   0.21030   0.97630   0.00000  Uiso   1.00
O321   O     0.66770   0.16270   0.81520   0.00000  Uiso   1.00
O322   O     0.48860   0.25090   0.77600   0.00000  Uiso   1.00
O323   O     0.30830   0.25760   0.75720   0.00000  Uiso   1.00
O324   O     0.98440   0.81570   0.55760   0.00000  Uiso   1.00
O325   O     0.55990   0.00660   0.80210   0.00000  Uiso   1.00
O326   O     0.99830   0.82740   0.65890   0.00000  Uiso   1.00
O327   O     0.48670   0.07600   0.86270   0.00000  Uiso   1.00
O328   O     0.39910   0.09040   0.73790   0.00000  Uiso   1.00
O329   O     0.41640   0.14100   0.91520   0.00000  Uiso   1.00
O330   O     0.22550   0.05570   0.97060   0.00000  Uiso   1.00
O331   O     0.50910   0.12840   0.03880   0.00000  Uiso   1.00
C332   C     0.90010   0.08870   0.73800   0.00000  Uiso   1.00
C333   C     0.88700   0.03090   0.55850   0.00000  Uiso   1.00
H334   H     0.83502   0.03752   0.57717   0.00000  Uiso   1.00
H335   H     0.87578   0.03567   0.51376   0.00000  Uiso   1.00
C336   C     0.98240   0.83950   0.60340   0.00000  Uiso   1.00
C337   C     0.95850   0.07440   0.64390   0.00000  Uiso   1.00
C338   C     0.96150   0.89070   0.59500   0.00000  Uiso   1.00
C339   C     0.97650   0.09810   0.76660   0.00000  Uiso   1.00
H340   H     0.98242   0.10818   0.80800   0.00000  Uiso   1.00
C341   C     0.93930   0.91810   0.64170   0.00000  Uiso   1.00
H342   H     0.94266   0.90655   0.68242   0.00000  Uiso   1.00
C343   C     0.89040   0.07780   0.67680   0.00000  Uiso   1.00
H344   H     0.83617   0.07256   0.65698   0.00000  Uiso   1.00
C345   C     0.91160   0.96320   0.62880   0.00000  Uiso   1.00
H346   H     0.89258   0.98147   0.66049   0.00000  Uiso   1.00
C347   C     0.82520   0.09570   0.77430   0.00000  Uiso   1.00
C348   C     0.93520   0.95420   0.52500   0.00000  Uiso   1.00
H349   H     0.93459   0.96650   0.48488   0.00000  Uiso   1.00
C350   C     0.04550   0.09290   0.73520   0.00000  Uiso   1.00
C351   C     0.96020   0.90910   0.53560   0.00000  Uiso   1.00
H352   H     0.97642   0.89060   0.50311   0.00000  Uiso   1.00
C353   C     0.03450   0.08010   0.67250   0.00000  Uiso   1.00
H354   H     0.08170   0.07565   0.65070   0.00000  Uiso   1.00
C355   C     0.13170   0.10000   0.76710   0.00000  Uiso   1.00
C356   C     0.91150   0.98150   0.57070   0.00000  Uiso   1.00
loop_
_geom_bond_atom_site_label_1
_geom_bond_atom_site_label_2
_geom_bond_distance
_geom_bond_site_symmetry_2
_ccdc_geom_bond_type
Mo1    O18     2.010   1_455 S
Mo1    O25     1.937   .     S
Mo1    O29     1.960   .     S
Mo1    O41     1.666   .     S
Mo1    O58     2.018   .     S
Mo1    O60     2.550   1_455 S
Mo2    O20     1.958   .     S
Mo2    O34     1.968   .     S
Mo2    O35     2.010   .     S
Mo2    O40     2.566   .     S
Mo2    O55     2.110   .     S
Mo2    O56     1.661   .     S
Mo3    O19     1.837   1_655 S
Mo3    O39     1.684   .     S
Mo3    O43     1.999   1_655 S
Mo3    O61     1.985   .     S
Mo3    O35     1.848   .     S
Mo3    O40     2.531   .     S
Mo4    O32     1.970   .     S
Mo4    O36     2.004   .     S
Mo4    O37     2.097   .     S
Mo4    O51     1.972   .     S
Mo4    O62     2.588   .     S
Mo4    O63     1.654   .     S
Mo5    O19     1.993   .     S
Mo5    O30     1.691   .     S
Mo5    O50     1.942   .     S
Mo5    O54     1.947   .     S
Mo5    O40     2.555   1_455 S
Mo5    O55     2.030   1_455 S
Mo6    O20     1.957   .     S
Mo6    O21     1.662   .     S
Mo6    O53     2.000   .     S
Mo6    O34     1.939   .     S
Mo6    O37     2.069   .     S
Mo6    O62     2.522   .     S
Mo7    O23     2.008   .     S
Mo7    O28     2.553   .     S
Mo7    O38     1.820   .     S
Mo7    O45     1.669   .     S
Mo7    O46     1.801   .     S
Mo7    O64     2.003   .     S
Mo8    O25     1.959   .     S
Mo8    O31     2.061   .     S
Mo8    O44     1.688   .     S
Mo8    O28     2.584   .     S
Mo8    O29     1.955   .     S
Mo8    O46     2.008   .     S
Mo9    O28     2.524   .     S
Mo9    O42     1.667   .     S
Mo9    O31     2.073   .     S
Mo9    O38     1.998   .     S
Mo9    O50     1.926   .     S
Mo9    O54     1.942   .     S
Mo10   O18     2.013   .     S
Mo10   O32     1.959   .     S
Mo10   O47     2.038   .     S
Mo10   O52     1.674   .     S
Mo10   O51     1.930   .     S
Mo10   O60     2.552   .     S
Mo11   O23     2.009   1_655 S
Mo11   O49     1.681   .     S
Mo11   O36     1.822   .     S
Mo11   O53     1.838   .     S
Mo11   O62     2.588   .     S
Mo11   O64     2.014   1_655 S
Mo12   O43     2.005   1_655 S
Mo12   O48     1.702   .     S
Mo12   O47     1.817   .     S
Mo12   O58     1.809   1_655 S
Mo12   O60     2.583   .     S
Mo12   O61     2.040   .     S
Zn13   O29     1.960   .     S
Zn13   O33     1.912   .     S
Zn13   O43     1.956   .     S
Zn13   O54     2.007   .     S
Zn14   O23     1.947   .     S
Zn14   O146    1.943   .     S
Zn14   O34     1.971   1_455 S
Zn14   O50     2.022   .     S
Zn15   O25     1.987   .     S
Zn15   O196    1.959   .     S
Zn15   O32     1.965   1_455 S
Zn15   O64     1.966   .     S
Zn16   O20     1.988   .     S
Zn16   O24     1.945   .     S
Zn16   O51     1.983   .     S
Zn16   O61     1.959   .     S
P17    O28     1.565   1_655 S
P17    O40     1.568   .     S
P17    O60     1.562   .     S
P17    O62     1.547   .     S
O18    Mo1     2.010   1_655 S
O18    Zn193   1.959   .     S
O19    Mo3     1.837   1_455 S
O22    C88     1.245   .     S
O23    Mo11    2.009   1_455 S
O24    C88     1.302   .     S
O26    C80     1.189   .     S
O27    C66     1.445   .     S
O27    C70     1.379   .     S
O28    P17     1.565   1_455 S
O32    Zn15    1.965   1_655 S
O33    C80     1.322   .     S
O34    Zn14    1.971   1_655 S
O40    Mo5     2.555   1_655 S
O43    Mo12    2.005   1_455 S
O43    Mo3     1.999   1_455 S
O55    Mo5     2.030   1_655 S
O57    C69     1.222   .     S
O57    Zn103   1.943   .     S
O58    Mo12    1.809   1_455 S
O59    C69     1.269   .     S
O60    Mo1     2.550   1_655 S
O64    Mo11    2.014   1_455 S
C65    C72     1.354   .     S
C65    C76     1.374   .     S
C65    C80     1.529   .     S
C66    H67     0.990   .     S
C66    H68     0.990   .     S
C66    C89     1.499   .     S
C69    C71     1.526   .     S
C70    C86     1.331   .     S
C70    C76     1.380   .     S
C71    C74     1.372   .     S
C71    C84     1.407   .     S
C72    H73     0.950   .     S
C72    C83     1.377   .     S
C74    H75     0.951   .     S
C74    C78     1.399   .     S
C76    H77     0.950   .     S
C78    H79     0.949   .     S
C78    C89     1.381   .     S
C81    H82     0.949   1_554 S
C81    C84     1.378   .     S
C81    C89     1.362   .     S
H82    C81     0.949   1_556 S
C83    C88     1.508   .     S
C83    C86     1.419   .     S
C84    H85     0.950   .     S
C86    H87     0.950   .     S
Mo90   O107    2.010   1_565 S
Mo90   O114    1.937   .     S
Mo90   O118    1.960   .     S
Mo90   O130    1.666   1_565 S
Mo90   O147    2.018   .     S
Mo90   O149    2.550   .     S
Mo91   O109    1.958   .     S
Mo91   O123    1.968   .     S
Mo91   O124    2.010   .     S
Mo91   O129    2.566   .     S
Mo91   O144    2.110   .     S
Mo91   O145    1.661   .     S
Mo92   O108    1.837   .     S
Mo92   O128    1.684   .     S
Mo92   O132    1.999   .     S
Mo92   O150    1.985   .     S
Mo92   O124    1.848   .     S
Mo92   O129    2.531   .     S
Mo93   O121    1.970   .     S
Mo93   O125    2.004   1_554 S
Mo93   O126    2.097   .     S
Mo93   O140    1.972   .     S
Mo93   O151    2.588   .     S
Mo93   O152    1.654   .     S
Mo94   O108    1.993   .     S
Mo94   O119    1.691   .     S
Mo94   O139    1.942   .     S
Mo94   O143    1.947   .     S
Mo94   O129    2.555   .     S
Mo94   O144    2.030   .     S
Mo95   O109    1.957   .     S
Mo95   O110    1.662   .     S
Mo95   O142    2.000   .     S
Mo95   O123    1.939   .     S
Mo95   O126    2.069   .     S
Mo95   O151    2.522   .     S
Mo96   O112    2.008   1_556 S
Mo96   O117    2.553   1_556 S
Mo96   O127    1.820   1_556 S
Mo96   O134    1.669   .     S
Mo96   O135    1.801   .     S
Mo96   O153    2.003   .     S
Mo97   O114    1.959   .     S
Mo97   O120    2.061   .     S
Mo97   O133    1.688   .     S
Mo97   O117    2.584   .     S
Mo97   O118    1.955   .     S
Mo97   O135    2.008   1_554 S
Mo98   O117    2.524   .     S
Mo98   O131    1.667   .     S
Mo98   O120    2.073   .     S
Mo98   O127    1.998   .     S
Mo98   O139    1.926   .     S
Mo98   O143    1.942   .     S
Mo99   O107    2.013   1_565 S
Mo99   O121    1.959   .     S
Mo99   O136    2.038   .     S
Mo99   O141    1.674   1_565 S
Mo99   O140    1.930   .     S
Mo99   O149    2.552   .     S
Mo100  O112    2.009   1_556 S
Mo100  O138    1.681   .     S
Mo100  O125    1.822   .     S
Mo100  O142    1.838   1_556 S
Mo100  O151    2.588   1_556 S
Mo100  O153    2.014   .     S
Mo101  O132    2.005   .     S
Mo101  O137    1.702   .     S
Mo101  O136    1.817   .     S
Mo101  O147    1.809   .     S
Mo101  O149    2.583   .     S
Mo101  O150    2.040   .     S
Zn102  O118    1.960   .     S
Zn102  O122    1.912   .     S
Zn102  O132    1.956   .     S
Zn102  O143    2.007   .     S
Zn103  O112    1.947   .     S
Zn103  O123    1.971   .     S
Zn103  O139    2.022   .     S
Zn104  O114    1.987   1_556 S
Zn104  O285    1.959   .     S
Zn104  O121    1.965   1_556 S
Zn104  O153    1.966   .     S
Zn105  O109    1.988   .     S
Zn105  O113    1.945   .     S
Zn105  O140    1.983   .     S
Zn105  O150    1.959   .     S
P106   O117    1.565   .     S
P106   O129    1.568   .     S
P106   O149    1.562   .     S
P106   O151    1.547   .     S
O107   Mo90    2.010   1_545 S
O107   Mo99    2.013   1_545 S
O107   Zn282   1.959   .     S
O111   C177    1.245   .     S
O112   Mo96    2.008   1_554 S
O112   Mo100   2.009   1_554 S
O113   C177    1.302   .     S
O114   Zn104   1.987   1_554 S
O115   C169    1.189   .     S
O116   C155    1.445   .     S
O116   C159    1.379   .     S
O117   Mo96    2.553   1_554 S
O121   Zn104   1.965   1_554 S
O122   C169    1.322   .     S
O125   Mo93    2.004   1_556 S
O127   Mo96    1.820   1_554 S
O130   Mo90    1.666   1_545 S
O135   Mo97    2.008   1_556 S
O141   Mo99    1.674   1_545 S
O142   Mo100   1.838   1_554 S
O146   C158    1.222   .     S
O148   C158    1.269   .     S
O151   Mo100   2.588   1_554 S
C154   C161    1.354   .     S
C154   C165    1.374   .     S
C154   C169    1.529   .     S
C155   H156    0.990   .     S
C155   H157    0.990   .     S
C155   C178    1.499   1_565 S
C158   C160    1.526   .     S
C159   C175    1.331   1_455 S
C159   C165    1.380   .     S
C160   C163    1.372   .     S
C160   C173    1.407   .     S
C161   H162    0.950   .     S
C161   C172    1.377   1_455 S
C163   H164    0.951   .     S
C163   C167    1.399   .     S
C165   H166    0.950   .     S
C167   H168    0.949   .     S
C167   C178    1.381   .     S
C170   H171    0.949   .     S
C170   C173    1.378   .     S
C170   C178    1.362   .     S
C172   C161    1.377   1_655 S
C172   C177    1.508   .     S
C172   C175    1.419   .     S
C173   H174    0.950   .     S
C175   C159    1.331   1_655 S
C175   H176    0.950   .     S
C178   C155    1.499   1_545 S
Mo179  O196    2.010   1_655 S
Mo179  O203    1.937   .     S
Mo179  O207    1.960   .     S
Mo179  O219    1.666   .     S
Mo179  O236    2.018   .     S
Mo179  O238    2.550   1_655 S
Mo180  O198    1.958   .     S
Mo180  O212    1.968   .     S
Mo180  O213    2.010   .     S
Mo180  O218    2.566   .     S
Mo180  O233    2.110   .     S
Mo180  O234    1.661   .     S
Mo181  O197    1.837   1_455 S
Mo181  O217    1.684   .     S
Mo181  O221    1.999   1_455 S
Mo181  O239    1.985   .     S
Mo181  O213    1.848   .     S
Mo181  O218    2.531   .     S
Mo182  O210    1.970   .     S
Mo182  O214    2.004   .     S
Mo182  O215    2.097   .     S
Mo182  O229    1.972   .     S
Mo182  O240    2.588   .     S
Mo182  O241    1.654   .     S
Mo183  O197    1.993   .     S
Mo183  O208    1.691   .     S
Mo183  O228    1.942   .     S
Mo183  O232    1.947   .     S
Mo183  O218    2.555   1_655 S
Mo183  O233    2.030   1_655 S
Mo184  O198    1.957   .     S
Mo184  O199    1.662   .     S
Mo184  O231    2.000   .     S
Mo184  O212    1.939   .     S
Mo184  O215    2.069   .     S
Mo184  O240    2.522   .     S
Mo185  O201    2.008   .     S
Mo185  O206    2.553   .     S
Mo185  O216    1.820   .     S
Mo185  O223    1.669   .     S
Mo185  O224    1.801   .     S
Mo185  O242    2.003   .     S
Mo186  O203    1.959   .     S
Mo186  O209    2.061   .     S
Mo186  O222    1.688   .     S
Mo186  O206    2.584   .     S
Mo186  O207    1.955   .     S
Mo186  O224    2.008   .     S
Mo187  O206    2.524   .     S
Mo187  O220    1.667   .     S
Mo187  O209    2.073   .     S
Mo187  O216    1.998   .     S
Mo187  O228    1.926   .     S
Mo187  O232    1.942   .     S
Mo188  O196    2.013   .     S
Mo188  O210    1.959   .     S
Mo188  O225    2.038   .     S
Mo188  O230    1.674   .     S
Mo188  O229    1.930   .     S
Mo188  O238    2.552   .     S
Mo189  O201    2.009   1_455 S
Mo189  O227    1.681   .     S
Mo189  O214    1.822   .     S
Mo189  O231    1.838   .     S
Mo189  O240    2.588   .     S
Mo189  O242    2.014   1_455 S
Mo190  O221    2.005   1_455 S
Mo190  O226    1.702   .     S
Mo190  O225    1.817   .     S
Mo190  O236    1.809   1_455 S
Mo190  O238    2.583   .     S
Mo190  O239    2.040   .     S
Zn191  O207    1.960   .     S
Zn191  O211    1.912   .     S
Zn191  O221    1.956   .     S
Zn191  O232    2.007   .     S
Zn192  O201    1.947   .     S
Zn192  O324    1.943   .     S
Zn192  O212    1.971   1_655 S
Zn192  O228    2.022   .     S
Zn193  O203    1.987   .     S
Zn193  O210    1.965   1_655 S
Zn193  O242    1.966   .     S
Zn194  O198    1.988   .     S
Zn194  O202    1.945   .     S
Zn194  O229    1.983   .     S
Zn194  O239    1.959   .     S
P195   O206    1.565   1_455 S
P195   O218    1.568   .     S
P195   O238    1.562   .     S
P195   O240    1.547   .     S
O196   Mo179   2.010   1_455 S
O197   Mo181   1.837   1_655 S
O200   C266    1.245   .     S
O201   Mo189   2.009   1_655 S
O202   C266    1.302   .     S
O204   C258    1.189   .     S
O205   C244    1.445   .     S
O205   C248    1.379   .     S
O206   P195    1.565   1_655 S
O210   Zn193   1.965   1_455 S
O211   C258    1.322   .     S
O212   Zn192   1.971   1_455 S
O218   Mo183   2.555   1_455 S
O221   Mo190   2.005   1_655 S
O221   Mo181   1.999   1_655 S
O233   Mo183   2.030   1_455 S
O235   C247    1.222   .     S
O235   Zn281   1.943   .     S
O236   Mo190   1.809   1_655 S
O237   C247    1.269   .     S
O238   Mo179   2.550   1_455 S
O242   Mo189   2.014   1_655 S
C243   C250    1.354   .     S
C243   C254    1.374   .     S
C243   C258    1.529   .     S
C244   H245    0.990   .     S
C244   H246    0.990   .     S
C244   C267    1.499   .     S
C247   C249    1.526   .     S
C248   C264    1.331   .     S
C248   C254    1.380   .     S
C249   C252    1.372   .     S
C249   C262    1.407   .     S
C250   H251    0.950   .     S
C250   C261    1.377   .     S
C252   H253    0.951   .     S
C252   C256    1.399   .     S
C254   H255    0.950   .     S
C256   H257    0.949   .     S
C256   C267    1.381   .     S
C259   H260    0.949   1_556 S
C259   C262    1.378   .     S
C259   C267    1.362   .     S
H260   C259    0.949   1_554 S
C261   C266    1.508   .     S
C261   C264    1.419   .     S
C262   H263    0.950   .     S
C264   H265    0.950   .     S
Mo268  O285    2.010   1_545 S
Mo268  O292    1.937   .     S
Mo268  O296    1.960   .     S
Mo268  O308    1.666   1_545 S
Mo268  O325    2.018   .     S
Mo268  O327    2.550   .     S
Mo269  O287    1.958   .     S
Mo269  O301    1.968   .     S
Mo269  O302    2.010   .     S
Mo269  O307    2.566   .     S
Mo269  O322    2.110   .     S
Mo269  O323    1.661   .     S
Mo270  O286    1.837   .     S
Mo270  O306    1.684   .     S
Mo270  O310    1.999   .     S
Mo270  O328    1.985   .     S
Mo270  O302    1.848   .     S
Mo270  O307    2.531   .     S
Mo271  O299    1.970   .     S
Mo271  O303    2.004   1_556 S
Mo271  O304    2.097   .     S
Mo271  O318    1.972   .     S
Mo271  O329    2.588   .     S
Mo271  O330    1.654   .     S
Mo272  O286    1.993   .     S
Mo272  O297    1.691   .     S
Mo272  O317    1.942   .     S
Mo272  O321    1.947   .     S
Mo272  O307    2.555   .     S
Mo272  O322    2.030   .     S
Mo273  O287    1.957   .     S
Mo273  O288    1.662   .     S
Mo273  O320    2.000   .     S
Mo273  O301    1.939   .     S
Mo273  O304    2.069   .     S
Mo273  O329    2.522   .     S
Mo274  O290    2.008   1_554 S
Mo274  O295    2.553   1_554 S
Mo274  O305    1.820   1_554 S
Mo274  O312    1.669   .     S
Mo274  O313    1.801   .     S
Mo274  O331    2.003   .     S
Mo275  O292    1.959   .     S
Mo275  O298    2.061   .     S
Mo275  O311    1.688   .     S
Mo275  O295    2.584   .     S
Mo275  O296    1.955   .     S
Mo275  O313    2.008   1_556 S
Mo276  O295    2.524   .     S
Mo276  O309    1.667   .     S
Mo276  O298    2.073   .     S
Mo276  O305    1.998   .     S
Mo276  O317    1.926   .     S
Mo276  O321    1.942   .     S
Mo277  O285    2.013   1_545 S
Mo277  O299    1.959   .     S
Mo277  O314    2.038   .     S
Mo277  O319    1.674   1_545 S
Mo277  O318    1.930   .     S
Mo277  O327    2.552   .     S
Mo278  O290    2.009   1_554 S
Mo278  O316    1.681   .     S
Mo278  O303    1.822   .     S
Mo278  O320    1.838   1_554 S
Mo278  O329    2.588   1_554 S
Mo278  O331    2.014   .     S
Mo279  O310    2.005   .     S
Mo279  O315    1.702   .     S
Mo279  O314    1.817   .     S
Mo279  O325    1.809   .     S
Mo279  O327    2.583   .     S
Mo279  O328    2.040   .     S
Zn280  O296    1.960   .     S
Zn280  O300    1.912   .     S
Zn280  O310    1.956   .     S
Zn280  O321    2.007   .     S
Zn281  O290    1.947   .     S
Zn281  O301    1.971   .     S
Zn281  O317    2.022   .     S
Zn282  O292    1.987   1_554 S
Zn282  O299    1.965   1_554 S
Zn282  O331    1.966   .     S
Zn283  O287    1.988   .     S
Zn283  O291    1.945   .     S
Zn283  O318    1.983   .     S
Zn283  O328    1.959   .     S
P284   O295    1.565   .     S
P284   O307    1.568   .     S
P284   O327    1.562   .     S
P284   O329    1.547   .     S
O285   Mo268   2.010   1_565 S
O285   Mo277   2.013   1_565 S
O289   C355    1.245   .     S
O290   Mo274   2.008   1_556 S
O290   Mo278   2.009   1_556 S
O291   C355    1.302   .     S
O292   Zn282   1.987   1_556 S
O293   C347    1.189   .     S
O294   C333    1.445   .     S
O294   C337    1.379   .     S
O295   Mo274   2.553   1_556 S
O299   Zn282   1.965   1_556 S
O300   C347    1.322   .     S
O303   Mo271   2.004   1_554 S
O305   Mo274   1.820   1_556 S
O308   Mo268   1.666   1_565 S
O313   Mo275   2.008   1_554 S
O319   Mo277   1.674   1_565 S
O320   Mo278   1.838   1_556 S
O324   C336    1.222   .     S
O326   C336    1.269   .     S
O329   Mo278   2.588   1_556 S
C332   C339    1.354   .     S
C332   C343    1.374   .     S
C332   C347    1.529   .     S
C333   H334    0.990   .     S
C333   H335    0.990   .     S
C333   C356    1.499   1_545 S
C336   C338    1.526   .     S
C337   C353    1.331   1_655 S
C337   C343    1.380   .     S
C338   C341    1.372   .     S
C338   C351    1.407   .     S
C339   H340    0.950   .     S
C339   C350    1.377   1_655 S
C341   H342    0.951   .     S
C341   C345    1.399   .     S
C343   H344    0.950   .     S
C345   H346    0.949   .     S
C345   C356    1.381   .     S
C348   H349    0.949   .     S
C348   C351    1.378   .     S
C348   C356    1.362   .     S
C350   C339    1.377   1_455 S
C350   C355    1.508   .     S
C350   C353    1.419   .     S
C351   H352    0.950   .     S
C353   C337    1.331   1_455 S
C353   H354    0.950   .     S
C356   C333    1.499   1_565 S
