data_RORTAV
_audit_creation_date              2024-06-12
_audit_creation_method            'Materials Studio'
_symmetry_space_group_name_H-M    'P1'
_symmetry_Int_Tables_number       1
_symmetry_cell_setting            triclinic
loop_
_symmetry_equiv_pos_as_xyz
  x,y,z
_cell_length_a                    23.1885
_cell_length_b                    23.1885
_cell_length_c                    23.1885
_cell_angle_alpha                 90.0000
_cell_angle_beta                  90.0000
_cell_angle_gamma                 90.0000
loop_
_atom_site_label
_atom_site_type_symbol
_atom_site_fract_x
_atom_site_fract_y
_atom_site_fract_z
_atom_site_U_iso_or_equiv
_atom_site_adp_type
_atom_site_occupancy
O1     O     0.32400   0.22320   0.29190   0.00000  Uiso   1.00
N2     N     0.32400   0.22100   0.34920   0.00000  Uiso   1.00
C3     C     0.36200   0.25280   0.37810   0.00000  Uiso   1.00
H4     H     0.38760   0.27610   0.35780   0.00000  Uiso   1.00
C5     C     0.36410   0.25200   0.43590   0.00000  Uiso   1.00
H6     H     0.39070   0.27510   0.45490   0.00000  Uiso   1.00
C7     C     0.32670   0.21660   0.46840   0.00000  Uiso   1.00
C8     C     0.28980   0.18280   0.43690   0.00000  Uiso   1.00
H9     H     0.26490   0.15820   0.45640   0.00000  Uiso   1.00
C10    C     0.28810   0.18390   0.37600   0.00000  Uiso   1.00
H11    H     0.26330   0.16010   0.35540   0.00000  Uiso   1.00
H12    H     0.53380   0.13060   0.25030   0.00000  Uiso   1.00
W13    W     0.42367   0.10845   0.07673   0.00000  Uiso   1.00
O14    O     0.44360   0.05630   0.13680   0.00000  Uiso   1.00
O15    O     0.36490   0.05710   0.05690   0.00000  Uiso   1.00
O16    O     0.38840   0.16020   0.11110   0.00000  Uiso   1.00
O17    O     0.82400   0.72320   0.79190   0.00000  Uiso   1.00
N18    N     0.82400   0.72100   0.84920   0.00000  Uiso   1.00
C19    C     0.86200   0.75280   0.87810   0.00000  Uiso   1.00
H20    H     0.88760   0.77610   0.85780   0.00000  Uiso   1.00
C21    C     0.86410   0.75200   0.93590   0.00000  Uiso   1.00
H22    H     0.89070   0.77510   0.95490   0.00000  Uiso   1.00
C23    C     0.82670   0.71660   0.96840   0.00000  Uiso   1.00
C24    C     0.78980   0.68280   0.93690   0.00000  Uiso   1.00
H25    H     0.76490   0.65820   0.95640   0.00000  Uiso   1.00
C26    C     0.78810   0.68390   0.87600   0.00000  Uiso   1.00
H27    H     0.76330   0.66010   0.85540   0.00000  Uiso   1.00
H28    H     0.03380   0.63060   0.75030   0.00000  Uiso   1.00
W29    W    -0.07633   0.60845   0.57673   0.00000  Uiso   1.00
O30    O    -0.05640   0.55630   0.63680   0.00000  Uiso   1.00
O31    O    -0.13510   0.55710   0.55690   0.00000  Uiso   1.00
O32    O    -0.11160   0.66020   0.61110   0.00000  Uiso   1.00
O33    O     0.67600   0.77680   0.29190   0.00000  Uiso   1.00
N34    N     0.67600   0.77900   0.34920   0.00000  Uiso   1.00
C35    C     0.63800   0.74720   0.37810   0.00000  Uiso   1.00
H36    H     0.61240   0.72390   0.35780   0.00000  Uiso   1.00
C37    C     0.63590   0.74800   0.43590   0.00000  Uiso   1.00
H38    H     0.60930   0.72490   0.45490   0.00000  Uiso   1.00
C39    C     0.67330   0.78340   0.46840   0.00000  Uiso   1.00
C40    C     0.71020   0.81720   0.43690   0.00000  Uiso   1.00
H41    H     0.73510   0.84180   0.45640   0.00000  Uiso   1.00
C42    C     0.71190   0.81610   0.37600   0.00000  Uiso   1.00
H43    H     0.73670   0.83990   0.35540   0.00000  Uiso   1.00
H44    H     0.46620   0.86940   0.25030   0.00000  Uiso   1.00
W45    W     0.57633  -0.10845   0.07673   0.00000  Uiso   1.00
O46    O     0.55640  -0.05630   0.13680   0.00000  Uiso   1.00
O47    O     0.63510  -0.05710   0.05690   0.00000  Uiso   1.00
O48    O     0.61160  -0.16020   0.11110   0.00000  Uiso   1.00
O49    O     0.17600   0.27680   0.79190   0.00000  Uiso   1.00
N50    N     0.17600   0.27900   0.84920   0.00000  Uiso   1.00
C51    C     0.13800   0.24720   0.87810   0.00000  Uiso   1.00
H52    H     0.11240   0.22390   0.85780   0.00000  Uiso   1.00
C53    C     0.13590   0.24800   0.93590   0.00000  Uiso   1.00
H54    H     0.10930   0.22490   0.95490   0.00000  Uiso   1.00
C55    C     0.17330   0.28340   0.96840   0.00000  Uiso   1.00
C56    C     0.21020   0.31720   0.93690   0.00000  Uiso   1.00
H57    H     0.23510   0.34180   0.95640   0.00000  Uiso   1.00
C58    C     0.21190   0.31610   0.87600   0.00000  Uiso   1.00
H59    H     0.23670   0.33990   0.85540   0.00000  Uiso   1.00
H60    H    -0.03380   0.36940   0.75030   0.00000  Uiso   1.00
W61    W     0.07633   0.39155   0.57673   0.00000  Uiso   1.00
O62    O     0.05640   0.44370   0.63680   0.00000  Uiso   1.00
O63    O     0.13510   0.44290   0.55690   0.00000  Uiso   1.00
O64    O     0.11160   0.33980   0.61110   0.00000  Uiso   1.00
O65    O     0.67600   0.22320   0.70810   0.00000  Uiso   1.00
N66    N     0.67600   0.22100   0.65080   0.00000  Uiso   1.00
C67    C     0.63800   0.25280   0.62190   0.00000  Uiso   1.00
H68    H     0.61240   0.27610   0.64220   0.00000  Uiso   1.00
C69    C     0.63590   0.25200   0.56410   0.00000  Uiso   1.00
H70    H     0.60930   0.27510   0.54510   0.00000  Uiso   1.00
C71    C     0.67330   0.21660   0.53160   0.00000  Uiso   1.00
C72    C     0.71020   0.18280   0.56310   0.00000  Uiso   1.00
H73    H     0.73510   0.15820   0.54360   0.00000  Uiso   1.00
C74    C     0.71190   0.18390   0.62400   0.00000  Uiso   1.00
H75    H     0.73670   0.16010   0.64460   0.00000  Uiso   1.00
H76    H     0.46620   0.13060   0.74970   0.00000  Uiso   1.00
W77    W     0.57633   0.10845  -0.07673   0.00000  Uiso   1.00
O78    O     0.55640   0.05630  -0.13680   0.00000  Uiso   1.00
O79    O     0.63510   0.05710  -0.05690   0.00000  Uiso   1.00
O80    O     0.61160   0.16020  -0.11110   0.00000  Uiso   1.00
O81    O     0.17600   0.72320   0.20810   0.00000  Uiso   1.00
N82    N     0.17600   0.72100   0.15080   0.00000  Uiso   1.00
C83    C     0.13800   0.75280   0.12190   0.00000  Uiso   1.00
H84    H     0.11240   0.77610   0.14220   0.00000  Uiso   1.00
C85    C     0.13590   0.75200   0.06410   0.00000  Uiso   1.00
H86    H     0.10930   0.77510   0.04510   0.00000  Uiso   1.00
C87    C     0.17330   0.71660   0.03160   0.00000  Uiso   1.00
C88    C     0.21020   0.68280   0.06310   0.00000  Uiso   1.00
H89    H     0.23510   0.65820   0.04360   0.00000  Uiso   1.00
C90    C     0.21190   0.68390   0.12400   0.00000  Uiso   1.00
H91    H     0.23670   0.66010   0.14460   0.00000  Uiso   1.00
H92    H    -0.03380   0.63060   0.24970   0.00000  Uiso   1.00
W93    W     0.07633   0.60845   0.42327   0.00000  Uiso   1.00
O94    O     0.05640   0.55630   0.36320   0.00000  Uiso   1.00
O95    O     0.13510   0.55710   0.44310   0.00000  Uiso   1.00
O96    O     0.11160   0.66020   0.38890   0.00000  Uiso   1.00
O97    O     0.32400   0.77680   0.70810   0.00000  Uiso   1.00
N98    N     0.32400   0.77900   0.65080   0.00000  Uiso   1.00
C99    C     0.36200   0.74720   0.62190   0.00000  Uiso   1.00
H100   H     0.38760   0.72390   0.64220   0.00000  Uiso   1.00
C101   C     0.36410   0.74800   0.56410   0.00000  Uiso   1.00
H102   H     0.39070   0.72490   0.54510   0.00000  Uiso   1.00
C103   C     0.32670   0.78340   0.53160   0.00000  Uiso   1.00
C104   C     0.28980   0.81720   0.56310   0.00000  Uiso   1.00
H105   H     0.26490   0.84180   0.54360   0.00000  Uiso   1.00
C106   C     0.28810   0.81610   0.62400   0.00000  Uiso   1.00
H107   H     0.26330   0.83990   0.64460   0.00000  Uiso   1.00
H108   H     0.53380   0.86940   0.74970   0.00000  Uiso   1.00
W109   W     0.42367  -0.10845  -0.07673   0.00000  Uiso   1.00
O110   O     0.44360  -0.05630  -0.13680   0.00000  Uiso   1.00
O111   O     0.36490  -0.05710  -0.05690   0.00000  Uiso   1.00
O112   O     0.38840  -0.16020  -0.11110   0.00000  Uiso   1.00
O113   O     0.82400   0.27680   0.20810   0.00000  Uiso   1.00
N114   N     0.82400   0.27900   0.15080   0.00000  Uiso   1.00
C115   C     0.86200   0.24720   0.12190   0.00000  Uiso   1.00
H116   H     0.88760   0.22390   0.14220   0.00000  Uiso   1.00
C117   C     0.86410   0.24800   0.06410   0.00000  Uiso   1.00
H118   H     0.89070   0.22490   0.04510   0.00000  Uiso   1.00
C119   C     0.82670   0.28340   0.03160   0.00000  Uiso   1.00
C120   C     0.78980   0.31720   0.06310   0.00000  Uiso   1.00
H121   H     0.76490   0.34180   0.04360   0.00000  Uiso   1.00
C122   C     0.78810   0.31610   0.12400   0.00000  Uiso   1.00
H123   H     0.76330   0.33990   0.14460   0.00000  Uiso   1.00
H124   H     0.03380   0.36940   0.24970   0.00000  Uiso   1.00
W125   W    -0.07633   0.39155   0.42327   0.00000  Uiso   1.00
O126   O    -0.05640   0.44370   0.36320   0.00000  Uiso   1.00
O127   O    -0.13510   0.44290   0.44310   0.00000  Uiso   1.00
O128   O    -0.11160   0.33980   0.38890   0.00000  Uiso   1.00
O129   O     0.29190   0.32400   0.22320   0.00000  Uiso   1.00
N130   N     0.34920   0.32400   0.22100   0.00000  Uiso   1.00
C131   C     0.37810   0.36200   0.25280   0.00000  Uiso   1.00
H132   H     0.35780   0.38760   0.27610   0.00000  Uiso   1.00
C133   C     0.43590   0.36410   0.25200   0.00000  Uiso   1.00
H134   H     0.45490   0.39070   0.27510   0.00000  Uiso   1.00
C135   C     0.46840   0.32670   0.21660   0.00000  Uiso   1.00
C136   C     0.43690   0.28980   0.18280   0.00000  Uiso   1.00
H137   H     0.45640   0.26490   0.15820   0.00000  Uiso   1.00
C138   C     0.37600   0.28810   0.18390   0.00000  Uiso   1.00
H139   H     0.35540   0.26330   0.16010   0.00000  Uiso   1.00
H140   H     0.25030   0.53380   0.13060   0.00000  Uiso   1.00
W141   W     0.07673   0.42367   0.10845   0.00000  Uiso   1.00
O142   O     0.13680   0.44360   0.05630   0.00000  Uiso   1.00
O143   O     0.05690   0.36490   0.05710   0.00000  Uiso   1.00
O144   O     0.11110   0.38840   0.16020   0.00000  Uiso   1.00
O145   O     0.79190   0.82400   0.72320   0.00000  Uiso   1.00
N146   N     0.84920   0.82400   0.72100   0.00000  Uiso   1.00
C147   C     0.87810   0.86200   0.75280   0.00000  Uiso   1.00
H148   H     0.85780   0.88760   0.77610   0.00000  Uiso   1.00
C149   C     0.93590   0.86410   0.75200   0.00000  Uiso   1.00
H150   H     0.95490   0.89070   0.77510   0.00000  Uiso   1.00
C151   C     0.96840   0.82670   0.71660   0.00000  Uiso   1.00
C152   C     0.93690   0.78980   0.68280   0.00000  Uiso   1.00
H153   H     0.95640   0.76490   0.65820   0.00000  Uiso   1.00
C154   C     0.87600   0.78810   0.68390   0.00000  Uiso   1.00
H155   H     0.85540   0.76330   0.66010   0.00000  Uiso   1.00
H156   H     0.75030   0.03380   0.63060   0.00000  Uiso   1.00
W157   W     0.57673  -0.07633   0.60845   0.00000  Uiso   1.00
O158   O     0.63680  -0.05640   0.55630   0.00000  Uiso   1.00
O159   O     0.55690  -0.13510   0.55710   0.00000  Uiso   1.00
O160   O     0.61110  -0.11160   0.66020   0.00000  Uiso   1.00
O161   O     0.29190   0.67600   0.77680   0.00000  Uiso   1.00
N162   N     0.34920   0.67600   0.77900   0.00000  Uiso   1.00
C163   C     0.37810   0.63800   0.74720   0.00000  Uiso   1.00
H164   H     0.35780   0.61240   0.72390   0.00000  Uiso   1.00
C165   C     0.43590   0.63590   0.74800   0.00000  Uiso   1.00
H166   H     0.45490   0.60930   0.72490   0.00000  Uiso   1.00
C167   C     0.46840   0.67330   0.78340   0.00000  Uiso   1.00
C168   C     0.43690   0.71020   0.81720   0.00000  Uiso   1.00
H169   H     0.45640   0.73510   0.84180   0.00000  Uiso   1.00
C170   C     0.37600   0.71190   0.81610   0.00000  Uiso   1.00
H171   H     0.35540   0.73670   0.83990   0.00000  Uiso   1.00
H172   H     0.25030   0.46620   0.86940   0.00000  Uiso   1.00
W173   W     0.07673   0.57633  -0.10845   0.00000  Uiso   1.00
O174   O     0.13680   0.55640  -0.05630   0.00000  Uiso   1.00
O175   O     0.05690   0.63510  -0.05710   0.00000  Uiso   1.00
O176   O     0.11110   0.61160  -0.16020   0.00000  Uiso   1.00
O177   O     0.79190   0.17600   0.27680   0.00000  Uiso   1.00
N178   N     0.84920   0.17600   0.27900   0.00000  Uiso   1.00
C179   C     0.87810   0.13800   0.24720   0.00000  Uiso   1.00
H180   H     0.85780   0.11240   0.22390   0.00000  Uiso   1.00
C181   C     0.93590   0.13590   0.24800   0.00000  Uiso   1.00
H182   H     0.95490   0.10930   0.22490   0.00000  Uiso   1.00
C183   C     0.96840   0.17330   0.28340   0.00000  Uiso   1.00
C184   C     0.93690   0.21020   0.31720   0.00000  Uiso   1.00
H185   H     0.95640   0.23510   0.34180   0.00000  Uiso   1.00
C186   C     0.87600   0.21190   0.31610   0.00000  Uiso   1.00
H187   H     0.85540   0.23670   0.33990   0.00000  Uiso   1.00
H188   H     0.75030  -0.03380   0.36940   0.00000  Uiso   1.00
W189   W     0.57673   0.07633   0.39155   0.00000  Uiso   1.00
O190   O     0.63680   0.05640   0.44370   0.00000  Uiso   1.00
O191   O     0.55690   0.13510   0.44290   0.00000  Uiso   1.00
O192   O     0.61110   0.11160   0.33980   0.00000  Uiso   1.00
O193   O     0.70810   0.67600   0.22320   0.00000  Uiso   1.00
N194   N     0.65080   0.67600   0.22100   0.00000  Uiso   1.00
C195   C     0.62190   0.63800   0.25280   0.00000  Uiso   1.00
H196   H     0.64220   0.61240   0.27610   0.00000  Uiso   1.00
C197   C     0.56410   0.63590   0.25200   0.00000  Uiso   1.00
H198   H     0.54510   0.60930   0.27510   0.00000  Uiso   1.00
C199   C     0.53160   0.67330   0.21660   0.00000  Uiso   1.00
C200   C     0.56310   0.71020   0.18280   0.00000  Uiso   1.00
H201   H     0.54360   0.73510   0.15820   0.00000  Uiso   1.00
C202   C     0.62400   0.71190   0.18390   0.00000  Uiso   1.00
H203   H     0.64460   0.73670   0.16010   0.00000  Uiso   1.00
H204   H     0.74970   0.46620   0.13060   0.00000  Uiso   1.00
W205   W    -0.07673   0.57633   0.10845   0.00000  Uiso   1.00
O206   O    -0.13680   0.55640   0.05630   0.00000  Uiso   1.00
O207   O    -0.05690   0.63510   0.05710   0.00000  Uiso   1.00
O208   O    -0.11110   0.61160   0.16020   0.00000  Uiso   1.00
O209   O     0.20810   0.17600   0.72320   0.00000  Uiso   1.00
N210   N     0.15080   0.17600   0.72100   0.00000  Uiso   1.00
C211   C     0.12190   0.13800   0.75280   0.00000  Uiso   1.00
H212   H     0.14220   0.11240   0.77610   0.00000  Uiso   1.00
C213   C     0.06410   0.13590   0.75200   0.00000  Uiso   1.00
H214   H     0.04510   0.10930   0.77510   0.00000  Uiso   1.00
C215   C     0.03160   0.17330   0.71660   0.00000  Uiso   1.00
C216   C     0.06310   0.21020   0.68280   0.00000  Uiso   1.00
H217   H     0.04360   0.23510   0.65820   0.00000  Uiso   1.00
C218   C     0.12400   0.21190   0.68390   0.00000  Uiso   1.00
H219   H     0.14460   0.23670   0.66010   0.00000  Uiso   1.00
H220   H     0.24970  -0.03380   0.63060   0.00000  Uiso   1.00
W221   W     0.42327   0.07633   0.60845   0.00000  Uiso   1.00
O222   O     0.36320   0.05640   0.55630   0.00000  Uiso   1.00
O223   O     0.44310   0.13510   0.55710   0.00000  Uiso   1.00
O224   O     0.38890   0.11160   0.66020   0.00000  Uiso   1.00
O225   O     0.70810   0.32400   0.77680   0.00000  Uiso   1.00
N226   N     0.65080   0.32400   0.77900   0.00000  Uiso   1.00
C227   C     0.62190   0.36200   0.74720   0.00000  Uiso   1.00
H228   H     0.64220   0.38760   0.72390   0.00000  Uiso   1.00
C229   C     0.56410   0.36410   0.74800   0.00000  Uiso   1.00
H230   H     0.54510   0.39070   0.72490   0.00000  Uiso   1.00
C231   C     0.53160   0.32670   0.78340   0.00000  Uiso   1.00
C232   C     0.56310   0.28980   0.81720   0.00000  Uiso   1.00
H233   H     0.54360   0.26490   0.84180   0.00000  Uiso   1.00
C234   C     0.62400   0.28810   0.81610   0.00000  Uiso   1.00
H235   H     0.64460   0.26330   0.83990   0.00000  Uiso   1.00
H236   H     0.74970   0.53380   0.86940   0.00000  Uiso   1.00
W237   W    -0.07673   0.42367  -0.10845   0.00000  Uiso   1.00
O238   O    -0.13680   0.44360  -0.05630   0.00000  Uiso   1.00
O239   O    -0.05690   0.36490  -0.05710   0.00000  Uiso   1.00
O240   O    -0.11110   0.38840  -0.16020   0.00000  Uiso   1.00
O241   O     0.20810   0.82400   0.27680   0.00000  Uiso   1.00
N242   N     0.15080   0.82400   0.27900   0.00000  Uiso   1.00
C243   C     0.12190   0.86200   0.24720   0.00000  Uiso   1.00
H244   H     0.14220   0.88760   0.22390   0.00000  Uiso   1.00
C245   C     0.06410   0.86410   0.24800   0.00000  Uiso   1.00
H246   H     0.04510   0.89070   0.22490   0.00000  Uiso   1.00
C247   C     0.03160   0.82670   0.28340   0.00000  Uiso   1.00
C248   C     0.06310   0.78980   0.31720   0.00000  Uiso   1.00
H249   H     0.04360   0.76490   0.34180   0.00000  Uiso   1.00
C250   C     0.12400   0.78810   0.31610   0.00000  Uiso   1.00
H251   H     0.14460   0.76330   0.33990   0.00000  Uiso   1.00
H252   H     0.24970   0.03380   0.36940   0.00000  Uiso   1.00
W253   W     0.42327  -0.07633   0.39155   0.00000  Uiso   1.00
O254   O     0.36320  -0.05640   0.44370   0.00000  Uiso   1.00
O255   O     0.44310  -0.13510   0.44290   0.00000  Uiso   1.00
O256   O     0.38890  -0.11160   0.33980   0.00000  Uiso   1.00
O257   O     0.22320   0.29190   0.32400   0.00000  Uiso   1.00
N258   N     0.22100   0.34920   0.32400   0.00000  Uiso   1.00
C259   C     0.25280   0.37810   0.36200   0.00000  Uiso   1.00
H260   H     0.27610   0.35780   0.38760   0.00000  Uiso   1.00
C261   C     0.25200   0.43590   0.36410   0.00000  Uiso   1.00
H262   H     0.27510   0.45490   0.39070   0.00000  Uiso   1.00
C263   C     0.21660   0.46840   0.32670   0.00000  Uiso   1.00
C264   C     0.18280   0.43690   0.28980   0.00000  Uiso   1.00
H265   H     0.15820   0.45640   0.26490   0.00000  Uiso   1.00
C266   C     0.18390   0.37600   0.28810   0.00000  Uiso   1.00
H267   H     0.16010   0.35540   0.26330   0.00000  Uiso   1.00
H268   H     0.13060   0.25030   0.53380   0.00000  Uiso   1.00
W269   W     0.10845   0.07673   0.42367   0.00000  Uiso   1.00
O270   O     0.05630   0.13680   0.44360   0.00000  Uiso   1.00
O271   O     0.05710   0.05690   0.36490   0.00000  Uiso   1.00
O272   O     0.16020   0.11110   0.38840   0.00000  Uiso   1.00
O273   O     0.72320   0.79190   0.82400   0.00000  Uiso   1.00
N274   N     0.72100   0.84920   0.82400   0.00000  Uiso   1.00
C275   C     0.75280   0.87810   0.86200   0.00000  Uiso   1.00
H276   H     0.77610   0.85780   0.88760   0.00000  Uiso   1.00
C277   C     0.75200   0.93590   0.86410   0.00000  Uiso   1.00
H278   H     0.77510   0.95490   0.89070   0.00000  Uiso   1.00
C279   C     0.71660   0.96840   0.82670   0.00000  Uiso   1.00
C280   C     0.68280   0.93690   0.78980   0.00000  Uiso   1.00
H281   H     0.65820   0.95640   0.76490   0.00000  Uiso   1.00
C282   C     0.68390   0.87600   0.78810   0.00000  Uiso   1.00
H283   H     0.66010   0.85540   0.76330   0.00000  Uiso   1.00
H284   H     0.63060   0.75030   0.03380   0.00000  Uiso   1.00
W285   W     0.60845   0.57673  -0.07633   0.00000  Uiso   1.00
O286   O     0.55630   0.63680  -0.05640   0.00000  Uiso   1.00
O287   O     0.55710   0.55690  -0.13510   0.00000  Uiso   1.00
O288   O     0.66020   0.61110  -0.11160   0.00000  Uiso   1.00
O289   O     0.77680   0.29190   0.67600   0.00000  Uiso   1.00
N290   N     0.77900   0.34920   0.67600   0.00000  Uiso   1.00
C291   C     0.74720   0.37810   0.63800   0.00000  Uiso   1.00
H292   H     0.72390   0.35780   0.61240   0.00000  Uiso   1.00
C293   C     0.74800   0.43590   0.63590   0.00000  Uiso   1.00
H294   H     0.72490   0.45490   0.60930   0.00000  Uiso   1.00
C295   C     0.78340   0.46840   0.67330   0.00000  Uiso   1.00
C296   C     0.81720   0.43690   0.71020   0.00000  Uiso   1.00
H297   H     0.84180   0.45640   0.73510   0.00000  Uiso   1.00
C298   C     0.81610   0.37600   0.71190   0.00000  Uiso   1.00
H299   H     0.83990   0.35540   0.73670   0.00000  Uiso   1.00
H300   H     0.86940   0.25030   0.46620   0.00000  Uiso   1.00
W301   W    -0.10845   0.07673   0.57633   0.00000  Uiso   1.00
O302   O    -0.05630   0.13680   0.55640   0.00000  Uiso   1.00
O303   O    -0.05710   0.05690   0.63510   0.00000  Uiso   1.00
O304   O    -0.16020   0.11110   0.61160   0.00000  Uiso   1.00
O305   O     0.27680   0.79190   0.17600   0.00000  Uiso   1.00
N306   N     0.27900   0.84920   0.17600   0.00000  Uiso   1.00
C307   C     0.24720   0.87810   0.13800   0.00000  Uiso   1.00
H308   H     0.22390   0.85780   0.11240   0.00000  Uiso   1.00
C309   C     0.24800   0.93590   0.13590   0.00000  Uiso   1.00
H310   H     0.22490   0.95490   0.10930   0.00000  Uiso   1.00
C311   C     0.28340   0.96840   0.17330   0.00000  Uiso   1.00
C312   C     0.31720   0.93690   0.21020   0.00000  Uiso   1.00
H313   H     0.34180   0.95640   0.23510   0.00000  Uiso   1.00
C314   C     0.31610   0.87600   0.21190   0.00000  Uiso   1.00
H315   H     0.33990   0.85540   0.23670   0.00000  Uiso   1.00
H316   H     0.36940   0.75030  -0.03380   0.00000  Uiso   1.00
W317   W     0.39155   0.57673   0.07633   0.00000  Uiso   1.00
O318   O     0.44370   0.63680   0.05640   0.00000  Uiso   1.00
O319   O     0.44290   0.55690   0.13510   0.00000  Uiso   1.00
O320   O     0.33980   0.61110   0.11160   0.00000  Uiso   1.00
O321   O     0.22320   0.70810   0.67600   0.00000  Uiso   1.00
N322   N     0.22100   0.65080   0.67600   0.00000  Uiso   1.00
C323   C     0.25280   0.62190   0.63800   0.00000  Uiso   1.00
H324   H     0.27610   0.64220   0.61240   0.00000  Uiso   1.00
C325   C     0.25200   0.56410   0.63590   0.00000  Uiso   1.00
H326   H     0.27510   0.54510   0.60930   0.00000  Uiso   1.00
C327   C     0.21660   0.53160   0.67330   0.00000  Uiso   1.00
C328   C     0.18280   0.56310   0.71020   0.00000  Uiso   1.00
H329   H     0.15820   0.54360   0.73510   0.00000  Uiso   1.00
C330   C     0.18390   0.62400   0.71190   0.00000  Uiso   1.00
H331   H     0.16010   0.64460   0.73670   0.00000  Uiso   1.00
H332   H     0.13060   0.74970   0.46620   0.00000  Uiso   1.00
W333   W     0.10845  -0.07673   0.57633   0.00000  Uiso   1.00
O334   O     0.05630  -0.13680   0.55640   0.00000  Uiso   1.00
O335   O     0.05710  -0.05690   0.63510   0.00000  Uiso   1.00
O336   O     0.16020  -0.11110   0.61160   0.00000  Uiso   1.00
O337   O     0.72320   0.20810   0.17600   0.00000  Uiso   1.00
N338   N     0.72100   0.15080   0.17600   0.00000  Uiso   1.00
C339   C     0.75280   0.12190   0.13800   0.00000  Uiso   1.00
H340   H     0.77610   0.14220   0.11240   0.00000  Uiso   1.00
C341   C     0.75200   0.06410   0.13590   0.00000  Uiso   1.00
H342   H     0.77510   0.04510   0.10930   0.00000  Uiso   1.00
C343   C     0.71660   0.03160   0.17330   0.00000  Uiso   1.00
C344   C     0.68280   0.06310   0.21020   0.00000  Uiso   1.00
H345   H     0.65820   0.04360   0.23510   0.00000  Uiso   1.00
C346   C     0.68390   0.12400   0.21190   0.00000  Uiso   1.00
H347   H     0.66010   0.14460   0.23670   0.00000  Uiso   1.00
H348   H     0.63060   0.24970  -0.03380   0.00000  Uiso   1.00
W349   W     0.60845   0.42327   0.07633   0.00000  Uiso   1.00
O350   O     0.55630   0.36320   0.05640   0.00000  Uiso   1.00
O351   O     0.55710   0.44310   0.13510   0.00000  Uiso   1.00
O352   O     0.66020   0.38890   0.11160   0.00000  Uiso   1.00
O353   O     0.77680   0.70810   0.32400   0.00000  Uiso   1.00
N354   N     0.77900   0.65080   0.32400   0.00000  Uiso   1.00
C355   C     0.74720   0.62190   0.36200   0.00000  Uiso   1.00
H356   H     0.72390   0.64220   0.38760   0.00000  Uiso   1.00
C357   C     0.74800   0.56410   0.36410   0.00000  Uiso   1.00
H358   H     0.72490   0.54510   0.39070   0.00000  Uiso   1.00
C359   C     0.78340   0.53160   0.32670   0.00000  Uiso   1.00
C360   C     0.81720   0.56310   0.28980   0.00000  Uiso   1.00
H361   H     0.84180   0.54360   0.26490   0.00000  Uiso   1.00
C362   C     0.81610   0.62400   0.28810   0.00000  Uiso   1.00
H363   H     0.83990   0.64460   0.26330   0.00000  Uiso   1.00
H364   H     0.86940   0.74970   0.53380   0.00000  Uiso   1.00
W365   W    -0.10845  -0.07673   0.42367   0.00000  Uiso   1.00
O366   O    -0.05630  -0.13680   0.44360   0.00000  Uiso   1.00
O367   O    -0.05710  -0.05690   0.36490   0.00000  Uiso   1.00
O368   O    -0.16020  -0.11110   0.38840   0.00000  Uiso   1.00
O369   O     0.27680   0.20810   0.82400   0.00000  Uiso   1.00
N370   N     0.27900   0.15080   0.82400   0.00000  Uiso   1.00
C371   C     0.24720   0.12190   0.86200   0.00000  Uiso   1.00
H372   H     0.22390   0.14220   0.88760   0.00000  Uiso   1.00
C373   C     0.24800   0.06410   0.86410   0.00000  Uiso   1.00
H374   H     0.22490   0.04510   0.89070   0.00000  Uiso   1.00
C375   C     0.28340   0.03160   0.82670   0.00000  Uiso   1.00
C376   C     0.31720   0.06310   0.78980   0.00000  Uiso   1.00
H377   H     0.34180   0.04360   0.76490   0.00000  Uiso   1.00
C378   C     0.31610   0.12400   0.78810   0.00000  Uiso   1.00
H379   H     0.33990   0.14460   0.76330   0.00000  Uiso   1.00
H380   H     0.36940   0.24970   0.03380   0.00000  Uiso   1.00
W381   W     0.39155   0.42327  -0.07633   0.00000  Uiso   1.00
O382   O     0.44370   0.36320  -0.05640   0.00000  Uiso   1.00
O383   O     0.44290   0.44310  -0.13510   0.00000  Uiso   1.00
O384   O     0.33980   0.38890  -0.11160   0.00000  Uiso   1.00
O385   O     0.67600   0.77680   0.70810   0.00000  Uiso   1.00
N386   N     0.67600   0.77900   0.65080   0.00000  Uiso   1.00
C387   C     0.63800   0.74720   0.62190   0.00000  Uiso   1.00
H388   H     0.61240   0.72390   0.64220   0.00000  Uiso   1.00
C389   C     0.63590   0.74800   0.56410   0.00000  Uiso   1.00
H390   H     0.60930   0.72490   0.54510   0.00000  Uiso   1.00
C391   C     0.67330   0.78340   0.53160   0.00000  Uiso   1.00
C392   C     0.71020   0.81720   0.56310   0.00000  Uiso   1.00
H393   H     0.73510   0.84180   0.54360   0.00000  Uiso   1.00
C394   C     0.71190   0.81610   0.62400   0.00000  Uiso   1.00
H395   H     0.73670   0.83990   0.64460   0.00000  Uiso   1.00
H396   H     0.46620   0.86940   0.74970   0.00000  Uiso   1.00
W397   W     0.57633  -0.10845  -0.07673   0.00000  Uiso   1.00
O398   O     0.55640  -0.05630  -0.13680   0.00000  Uiso   1.00
O399   O     0.63510  -0.05710  -0.05690   0.00000  Uiso   1.00
O400   O     0.61160  -0.16020  -0.11110   0.00000  Uiso   1.00
O401   O     0.17600   0.27680   0.20810   0.00000  Uiso   1.00
N402   N     0.17600   0.27900   0.15080   0.00000  Uiso   1.00
C403   C     0.13800   0.24720   0.12190   0.00000  Uiso   1.00
H404   H     0.11240   0.22390   0.14220   0.00000  Uiso   1.00
C405   C     0.13590   0.24800   0.06410   0.00000  Uiso   1.00
H406   H     0.10930   0.22490   0.04510   0.00000  Uiso   1.00
C407   C     0.17330   0.28340   0.03160   0.00000  Uiso   1.00
C408   C     0.21020   0.31720   0.06310   0.00000  Uiso   1.00
H409   H     0.23510   0.34180   0.04360   0.00000  Uiso   1.00
C410   C     0.21190   0.31610   0.12400   0.00000  Uiso   1.00
H411   H     0.23670   0.33990   0.14460   0.00000  Uiso   1.00
H412   H    -0.03380   0.36940   0.24970   0.00000  Uiso   1.00
W413   W     0.07633   0.39155   0.42327   0.00000  Uiso   1.00
O414   O     0.05640   0.44370   0.36320   0.00000  Uiso   1.00
O415   O     0.13510   0.44290   0.44310   0.00000  Uiso   1.00
O416   O     0.11160   0.33980   0.38890   0.00000  Uiso   1.00
O417   O     0.32400   0.22320   0.70810   0.00000  Uiso   1.00
N418   N     0.32400   0.22100   0.65080   0.00000  Uiso   1.00
C419   C     0.36200   0.25280   0.62190   0.00000  Uiso   1.00
H420   H     0.38760   0.27610   0.64220   0.00000  Uiso   1.00
C421   C     0.36410   0.25200   0.56410   0.00000  Uiso   1.00
H422   H     0.39070   0.27510   0.54510   0.00000  Uiso   1.00
C423   C     0.32670   0.21660   0.53160   0.00000  Uiso   1.00
C424   C     0.28980   0.18280   0.56310   0.00000  Uiso   1.00
H425   H     0.26490   0.15820   0.54360   0.00000  Uiso   1.00
C426   C     0.28810   0.18390   0.62400   0.00000  Uiso   1.00
H427   H     0.26330   0.16010   0.64460   0.00000  Uiso   1.00
H428   H     0.53380   0.13060   0.74970   0.00000  Uiso   1.00
W429   W     0.42367   0.10845  -0.07673   0.00000  Uiso   1.00
O430   O     0.44360   0.05630  -0.13680   0.00000  Uiso   1.00
O431   O     0.36490   0.05710  -0.05690   0.00000  Uiso   1.00
O432   O     0.38840   0.16020  -0.11110   0.00000  Uiso   1.00
O433   O     0.82400   0.72320   0.20810   0.00000  Uiso   1.00
N434   N     0.82400   0.72100   0.15080   0.00000  Uiso   1.00
C435   C     0.86200   0.75280   0.12190   0.00000  Uiso   1.00
H436   H     0.88760   0.77610   0.14220   0.00000  Uiso   1.00
C437   C     0.86410   0.75200   0.06410   0.00000  Uiso   1.00
H438   H     0.89070   0.77510   0.04510   0.00000  Uiso   1.00
C439   C     0.82670   0.71660   0.03160   0.00000  Uiso   1.00
C440   C     0.78980   0.68280   0.06310   0.00000  Uiso   1.00
H441   H     0.76490   0.65820   0.04360   0.00000  Uiso   1.00
C442   C     0.78810   0.68390   0.12400   0.00000  Uiso   1.00
H443   H     0.76330   0.66010   0.14460   0.00000  Uiso   1.00
H444   H     0.03380   0.63060   0.24970   0.00000  Uiso   1.00
W445   W    -0.07633   0.60845   0.42327   0.00000  Uiso   1.00
O446   O    -0.05640   0.55630   0.36320   0.00000  Uiso   1.00
O447   O    -0.13510   0.55710   0.44310   0.00000  Uiso   1.00
O448   O    -0.11160   0.66020   0.38890   0.00000  Uiso   1.00
O449   O     0.32400   0.77680   0.29190   0.00000  Uiso   1.00
N450   N     0.32400   0.77900   0.34920   0.00000  Uiso   1.00
C451   C     0.36200   0.74720   0.37810   0.00000  Uiso   1.00
H452   H     0.38760   0.72390   0.35780   0.00000  Uiso   1.00
C453   C     0.36410   0.74800   0.43590   0.00000  Uiso   1.00
H454   H     0.39070   0.72490   0.45490   0.00000  Uiso   1.00
C455   C     0.32670   0.78340   0.46840   0.00000  Uiso   1.00
C456   C     0.28980   0.81720   0.43690   0.00000  Uiso   1.00
H457   H     0.26490   0.84180   0.45640   0.00000  Uiso   1.00
C458   C     0.28810   0.81610   0.37600   0.00000  Uiso   1.00
H459   H     0.26330   0.83990   0.35540   0.00000  Uiso   1.00
H460   H     0.53380   0.86940   0.25030   0.00000  Uiso   1.00
W461   W     0.42367  -0.10845   0.07673   0.00000  Uiso   1.00
O462   O     0.44360  -0.05630   0.13680   0.00000  Uiso   1.00
O463   O     0.36490  -0.05710   0.05690   0.00000  Uiso   1.00
O464   O     0.38840  -0.16020   0.11110   0.00000  Uiso   1.00
O465   O     0.82400   0.27680   0.79190   0.00000  Uiso   1.00
N466   N     0.82400   0.27900   0.84920   0.00000  Uiso   1.00
C467   C     0.86200   0.24720   0.87810   0.00000  Uiso   1.00
H468   H     0.88760   0.22390   0.85780   0.00000  Uiso   1.00
C469   C     0.86410   0.24800   0.93590   0.00000  Uiso   1.00
H470   H     0.89070   0.22490   0.95490   0.00000  Uiso   1.00
C471   C     0.82670   0.28340   0.96840   0.00000  Uiso   1.00
C472   C     0.78980   0.31720   0.93690   0.00000  Uiso   1.00
H473   H     0.76490   0.34180   0.95640   0.00000  Uiso   1.00
C474   C     0.78810   0.31610   0.87600   0.00000  Uiso   1.00
H475   H     0.76330   0.33990   0.85540   0.00000  Uiso   1.00
H476   H     0.03380   0.36940   0.75030   0.00000  Uiso   1.00
W477   W    -0.07633   0.39155   0.57673   0.00000  Uiso   1.00
O478   O    -0.05640   0.44370   0.63680   0.00000  Uiso   1.00
O479   O    -0.13510   0.44290   0.55690   0.00000  Uiso   1.00
O480   O    -0.11160   0.33980   0.61110   0.00000  Uiso   1.00
O481   O     0.67600   0.22320   0.29190   0.00000  Uiso   1.00
N482   N     0.67600   0.22100   0.34920   0.00000  Uiso   1.00
C483   C     0.63800   0.25280   0.37810   0.00000  Uiso   1.00
H484   H     0.61240   0.27610   0.35780   0.00000  Uiso   1.00
C485   C     0.63590   0.25200   0.43590   0.00000  Uiso   1.00
H486   H     0.60930   0.27510   0.45490   0.00000  Uiso   1.00
C487   C     0.67330   0.21660   0.46840   0.00000  Uiso   1.00
C488   C     0.71020   0.18280   0.43690   0.00000  Uiso   1.00
H489   H     0.73510   0.15820   0.45640   0.00000  Uiso   1.00
C490   C     0.71190   0.18390   0.37600   0.00000  Uiso   1.00
H491   H     0.73670   0.16010   0.35540   0.00000  Uiso   1.00
H492   H     0.46620   0.13060   0.25030   0.00000  Uiso   1.00
W493   W     0.57633   0.10845   0.07673   0.00000  Uiso   1.00
O494   O     0.55640   0.05630   0.13680   0.00000  Uiso   1.00
O495   O     0.63510   0.05710   0.05690   0.00000  Uiso   1.00
O496   O     0.61160   0.16020   0.11110   0.00000  Uiso   1.00
O497   O     0.17600   0.72320   0.79190   0.00000  Uiso   1.00
N498   N     0.17600   0.72100   0.84920   0.00000  Uiso   1.00
C499   C     0.13800   0.75280   0.87810   0.00000  Uiso   1.00
H500   H     0.11240   0.77610   0.85780   0.00000  Uiso   1.00
C501   C     0.13590   0.75200   0.93590   0.00000  Uiso   1.00
H502   H     0.10930   0.77510   0.95490   0.00000  Uiso   1.00
C503   C     0.17330   0.71660   0.96840   0.00000  Uiso   1.00
C504   C     0.21020   0.68280   0.93690   0.00000  Uiso   1.00
H505   H     0.23510   0.65820   0.95640   0.00000  Uiso   1.00
C506   C     0.21190   0.68390   0.87600   0.00000  Uiso   1.00
H507   H     0.23670   0.66010   0.85540   0.00000  Uiso   1.00
H508   H    -0.03380   0.63060   0.75030   0.00000  Uiso   1.00
W509   W     0.07633   0.60845   0.57673   0.00000  Uiso   1.00
O510   O     0.05640   0.55630   0.63680   0.00000  Uiso   1.00
O511   O     0.13510   0.55710   0.55690   0.00000  Uiso   1.00
O512   O     0.11160   0.66020   0.61110   0.00000  Uiso   1.00
O513   O     0.70810   0.67600   0.77680   0.00000  Uiso   1.00
N514   N     0.65080   0.67600   0.77900   0.00000  Uiso   1.00
C515   C     0.62190   0.63800   0.74720   0.00000  Uiso   1.00
H516   H     0.64220   0.61240   0.72390   0.00000  Uiso   1.00
C517   C     0.56410   0.63590   0.74800   0.00000  Uiso   1.00
H518   H     0.54510   0.60930   0.72490   0.00000  Uiso   1.00
C519   C     0.53160   0.67330   0.78340   0.00000  Uiso   1.00
C520   C     0.56310   0.71020   0.81720   0.00000  Uiso   1.00
H521   H     0.54360   0.73510   0.84180   0.00000  Uiso   1.00
C522   C     0.62400   0.71190   0.81610   0.00000  Uiso   1.00
H523   H     0.64460   0.73670   0.83990   0.00000  Uiso   1.00
H524   H     0.74970   0.46620   0.86940   0.00000  Uiso   1.00
W525   W    -0.07673   0.57633  -0.10845   0.00000  Uiso   1.00
O526   O    -0.13680   0.55640  -0.05630   0.00000  Uiso   1.00
O527   O    -0.05690   0.63510  -0.05710   0.00000  Uiso   1.00
O528   O    -0.11110   0.61160  -0.16020   0.00000  Uiso   1.00
O529   O     0.20810   0.17600   0.27680   0.00000  Uiso   1.00
N530   N     0.15080   0.17600   0.27900   0.00000  Uiso   1.00
C531   C     0.12190   0.13800   0.24720   0.00000  Uiso   1.00
H532   H     0.14220   0.11240   0.22390   0.00000  Uiso   1.00
C533   C     0.06410   0.13590   0.24800   0.00000  Uiso   1.00
H534   H     0.04510   0.10930   0.22490   0.00000  Uiso   1.00
C535   C     0.03160   0.17330   0.28340   0.00000  Uiso   1.00
C536   C     0.06310   0.21020   0.31720   0.00000  Uiso   1.00
H537   H     0.04360   0.23510   0.34180   0.00000  Uiso   1.00
C538   C     0.12400   0.21190   0.31610   0.00000  Uiso   1.00
H539   H     0.14460   0.23670   0.33990   0.00000  Uiso   1.00
H540   H     0.24970  -0.03380   0.36940   0.00000  Uiso   1.00
W541   W     0.42327   0.07633   0.39155   0.00000  Uiso   1.00
O542   O     0.36320   0.05640   0.44370   0.00000  Uiso   1.00
O543   O     0.44310   0.13510   0.44290   0.00000  Uiso   1.00
O544   O     0.38890   0.11160   0.33980   0.00000  Uiso   1.00
O545   O     0.70810   0.32400   0.22320   0.00000  Uiso   1.00
N546   N     0.65080   0.32400   0.22100   0.00000  Uiso   1.00
C547   C     0.62190   0.36200   0.25280   0.00000  Uiso   1.00
H548   H     0.64220   0.38760   0.27610   0.00000  Uiso   1.00
C549   C     0.56410   0.36410   0.25200   0.00000  Uiso   1.00
H550   H     0.54510   0.39070   0.27510   0.00000  Uiso   1.00
C551   C     0.53160   0.32670   0.21660   0.00000  Uiso   1.00
C552   C     0.56310   0.28980   0.18280   0.00000  Uiso   1.00
H553   H     0.54360   0.26490   0.15820   0.00000  Uiso   1.00
C554   C     0.62400   0.28810   0.18390   0.00000  Uiso   1.00
H555   H     0.64460   0.26330   0.16010   0.00000  Uiso   1.00
H556   H     0.74970   0.53380   0.13060   0.00000  Uiso   1.00
W557   W    -0.07673   0.42367   0.10845   0.00000  Uiso   1.00
O558   O    -0.13680   0.44360   0.05630   0.00000  Uiso   1.00
O559   O    -0.05690   0.36490   0.05710   0.00000  Uiso   1.00
O560   O    -0.11110   0.38840   0.16020   0.00000  Uiso   1.00
O561   O     0.20810   0.82400   0.72320   0.00000  Uiso   1.00
N562   N     0.15080   0.82400   0.72100   0.00000  Uiso   1.00
C563   C     0.12190   0.86200   0.75280   0.00000  Uiso   1.00
H564   H     0.14220   0.88760   0.77610   0.00000  Uiso   1.00
C565   C     0.06410   0.86410   0.75200   0.00000  Uiso   1.00
H566   H     0.04510   0.89070   0.77510   0.00000  Uiso   1.00
C567   C     0.03160   0.82670   0.71660   0.00000  Uiso   1.00
C568   C     0.06310   0.78980   0.68280   0.00000  Uiso   1.00
H569   H     0.04360   0.76490   0.65820   0.00000  Uiso   1.00
C570   C     0.12400   0.78810   0.68390   0.00000  Uiso   1.00
H571   H     0.14460   0.76330   0.66010   0.00000  Uiso   1.00
H572   H     0.24970   0.03380   0.63060   0.00000  Uiso   1.00
W573   W     0.42327  -0.07633   0.60845   0.00000  Uiso   1.00
O574   O     0.36320  -0.05640   0.55630   0.00000  Uiso   1.00
O575   O     0.44310  -0.13510   0.55710   0.00000  Uiso   1.00
O576   O     0.38890  -0.11160   0.66020   0.00000  Uiso   1.00
O577   O     0.29190   0.32400   0.77680   0.00000  Uiso   1.00
N578   N     0.34920   0.32400   0.77900   0.00000  Uiso   1.00
C579   C     0.37810   0.36200   0.74720   0.00000  Uiso   1.00
H580   H     0.35780   0.38760   0.72390   0.00000  Uiso   1.00
C581   C     0.43590   0.36410   0.74800   0.00000  Uiso   1.00
H582   H     0.45490   0.39070   0.72490   0.00000  Uiso   1.00
C583   C     0.46840   0.32670   0.78340   0.00000  Uiso   1.00
C584   C     0.43690   0.28980   0.81720   0.00000  Uiso   1.00
H585   H     0.45640   0.26490   0.84180   0.00000  Uiso   1.00
C586   C     0.37600   0.28810   0.81610   0.00000  Uiso   1.00
H587   H     0.35540   0.26330   0.83990   0.00000  Uiso   1.00
H588   H     0.25030   0.53380   0.86940   0.00000  Uiso   1.00
W589   W     0.07673   0.42367  -0.10845   0.00000  Uiso   1.00
O590   O     0.13680   0.44360  -0.05630   0.00000  Uiso   1.00
O591   O     0.05690   0.36490  -0.05710   0.00000  Uiso   1.00
O592   O     0.11110   0.38840  -0.16020   0.00000  Uiso   1.00
O593   O     0.79190   0.82400   0.27680   0.00000  Uiso   1.00
N594   N     0.84920   0.82400   0.27900   0.00000  Uiso   1.00
C595   C     0.87810   0.86200   0.24720   0.00000  Uiso   1.00
H596   H     0.85780   0.88760   0.22390   0.00000  Uiso   1.00
C597   C     0.93590   0.86410   0.24800   0.00000  Uiso   1.00
H598   H     0.95490   0.89070   0.22490   0.00000  Uiso   1.00
C599   C     0.96840   0.82670   0.28340   0.00000  Uiso   1.00
C600   C     0.93690   0.78980   0.31720   0.00000  Uiso   1.00
H601   H     0.95640   0.76490   0.34180   0.00000  Uiso   1.00
C602   C     0.87600   0.78810   0.31610   0.00000  Uiso   1.00
H603   H     0.85540   0.76330   0.33990   0.00000  Uiso   1.00
H604   H     0.75030   0.03380   0.36940   0.00000  Uiso   1.00
W605   W     0.57673  -0.07633   0.39155   0.00000  Uiso   1.00
O606   O     0.63680  -0.05640   0.44370   0.00000  Uiso   1.00
O607   O     0.55690  -0.13510   0.44290   0.00000  Uiso   1.00
O608   O     0.61110  -0.11160   0.33980   0.00000  Uiso   1.00
O609   O     0.29190   0.67600   0.22320   0.00000  Uiso   1.00
N610   N     0.34920   0.67600   0.22100   0.00000  Uiso   1.00
C611   C     0.37810   0.63800   0.25280   0.00000  Uiso   1.00
H612   H     0.35780   0.61240   0.27610   0.00000  Uiso   1.00
C613   C     0.43590   0.63590   0.25200   0.00000  Uiso   1.00
H614   H     0.45490   0.60930   0.27510   0.00000  Uiso   1.00
C615   C     0.46840   0.67330   0.21660   0.00000  Uiso   1.00
C616   C     0.43690   0.71020   0.18280   0.00000  Uiso   1.00
H617   H     0.45640   0.73510   0.15820   0.00000  Uiso   1.00
C618   C     0.37600   0.71190   0.18390   0.00000  Uiso   1.00
H619   H     0.35540   0.73670   0.16010   0.00000  Uiso   1.00
H620   H     0.25030   0.46620   0.13060   0.00000  Uiso   1.00
W621   W     0.07673   0.57633   0.10845   0.00000  Uiso   1.00
O622   O     0.13680   0.55640   0.05630   0.00000  Uiso   1.00
O623   O     0.05690   0.63510   0.05710   0.00000  Uiso   1.00
O624   O     0.11110   0.61160   0.16020   0.00000  Uiso   1.00
O625   O     0.79190   0.17600   0.72320   0.00000  Uiso   1.00
N626   N     0.84920   0.17600   0.72100   0.00000  Uiso   1.00
C627   C     0.87810   0.13800   0.75280   0.00000  Uiso   1.00
H628   H     0.85780   0.11240   0.77610   0.00000  Uiso   1.00
C629   C     0.93590   0.13590   0.75200   0.00000  Uiso   1.00
H630   H     0.95490   0.10930   0.77510   0.00000  Uiso   1.00
C631   C     0.96840   0.17330   0.71660   0.00000  Uiso   1.00
C632   C     0.93690   0.21020   0.68280   0.00000  Uiso   1.00
H633   H     0.95640   0.23510   0.65820   0.00000  Uiso   1.00
C634   C     0.87600   0.21190   0.68390   0.00000  Uiso   1.00
H635   H     0.85540   0.23670   0.66010   0.00000  Uiso   1.00
H636   H     0.75030  -0.03380   0.63060   0.00000  Uiso   1.00
W637   W     0.57673   0.07633   0.60845   0.00000  Uiso   1.00
O638   O     0.63680   0.05640   0.55630   0.00000  Uiso   1.00
O639   O     0.55690   0.13510   0.55710   0.00000  Uiso   1.00
O640   O     0.61110   0.11160   0.66020   0.00000  Uiso   1.00
O641   O     0.77680   0.70810   0.67600   0.00000  Uiso   1.00
N642   N     0.77900   0.65080   0.67600   0.00000  Uiso   1.00
C643   C     0.74720   0.62190   0.63800   0.00000  Uiso   1.00
H644   H     0.72390   0.64220   0.61240   0.00000  Uiso   1.00
C645   C     0.74800   0.56410   0.63590   0.00000  Uiso   1.00
H646   H     0.72490   0.54510   0.60930   0.00000  Uiso   1.00
C647   C     0.78340   0.53160   0.67330   0.00000  Uiso   1.00
C648   C     0.81720   0.56310   0.71020   0.00000  Uiso   1.00
H649   H     0.84180   0.54360   0.73510   0.00000  Uiso   1.00
C650   C     0.81610   0.62400   0.71190   0.00000  Uiso   1.00
H651   H     0.83990   0.64460   0.73670   0.00000  Uiso   1.00
H652   H     0.86940   0.74970   0.46620   0.00000  Uiso   1.00
W653   W    -0.10845  -0.07673   0.57633   0.00000  Uiso   1.00
O654   O    -0.05630  -0.13680   0.55640   0.00000  Uiso   1.00
O655   O    -0.05710  -0.05690   0.63510   0.00000  Uiso   1.00
O656   O    -0.16020  -0.11110   0.61160   0.00000  Uiso   1.00
O657   O     0.27680   0.20810   0.17600   0.00000  Uiso   1.00
N658   N     0.27900   0.15080   0.17600   0.00000  Uiso   1.00
C659   C     0.24720   0.12190   0.13800   0.00000  Uiso   1.00
H660   H     0.22390   0.14220   0.11240   0.00000  Uiso   1.00
C661   C     0.24800   0.06410   0.13590   0.00000  Uiso   1.00
H662   H     0.22490   0.04510   0.10930   0.00000  Uiso   1.00
C663   C     0.28340   0.03160   0.17330   0.00000  Uiso   1.00
C664   C     0.31720   0.06310   0.21020   0.00000  Uiso   1.00
H665   H     0.34180   0.04360   0.23510   0.00000  Uiso   1.00
C666   C     0.31610   0.12400   0.21190   0.00000  Uiso   1.00
H667   H     0.33990   0.14460   0.23670   0.00000  Uiso   1.00
H668   H     0.36940   0.24970  -0.03380   0.00000  Uiso   1.00
W669   W     0.39155   0.42327   0.07633   0.00000  Uiso   1.00
O670   O     0.44370   0.36320   0.05640   0.00000  Uiso   1.00
O671   O     0.44290   0.44310   0.13510   0.00000  Uiso   1.00
O672   O     0.33980   0.38890   0.11160   0.00000  Uiso   1.00
O673   O     0.22320   0.70810   0.32400   0.00000  Uiso   1.00
N674   N     0.22100   0.65080   0.32400   0.00000  Uiso   1.00
C675   C     0.25280   0.62190   0.36200   0.00000  Uiso   1.00
H676   H     0.27610   0.64220   0.38760   0.00000  Uiso   1.00
C677   C     0.25200   0.56410   0.36410   0.00000  Uiso   1.00
H678   H     0.27510   0.54510   0.39070   0.00000  Uiso   1.00
C679   C     0.21660   0.53160   0.32670   0.00000  Uiso   1.00
C680   C     0.18280   0.56310   0.28980   0.00000  Uiso   1.00
H681   H     0.15820   0.54360   0.26490   0.00000  Uiso   1.00
C682   C     0.18390   0.62400   0.28810   0.00000  Uiso   1.00
H683   H     0.16010   0.64460   0.26330   0.00000  Uiso   1.00
H684   H     0.13060   0.74970   0.53380   0.00000  Uiso   1.00
W685   W     0.10845  -0.07673   0.42367   0.00000  Uiso   1.00
O686   O     0.05630  -0.13680   0.44360   0.00000  Uiso   1.00
O687   O     0.05710  -0.05690   0.36490   0.00000  Uiso   1.00
O688   O     0.16020  -0.11110   0.38840   0.00000  Uiso   1.00
O689   O     0.72320   0.20810   0.82400   0.00000  Uiso   1.00
N690   N     0.72100   0.15080   0.82400   0.00000  Uiso   1.00
C691   C     0.75280   0.12190   0.86200   0.00000  Uiso   1.00
H692   H     0.77610   0.14220   0.88760   0.00000  Uiso   1.00
C693   C     0.75200   0.06410   0.86410   0.00000  Uiso   1.00
H694   H     0.77510   0.04510   0.89070   0.00000  Uiso   1.00
C695   C     0.71660   0.03160   0.82670   0.00000  Uiso   1.00
C696   C     0.68280   0.06310   0.78980   0.00000  Uiso   1.00
H697   H     0.65820   0.04360   0.76490   0.00000  Uiso   1.00
C698   C     0.68390   0.12400   0.78810   0.00000  Uiso   1.00
H699   H     0.66010   0.14460   0.76330   0.00000  Uiso   1.00
H700   H     0.63060   0.24970   0.03380   0.00000  Uiso   1.00
W701   W     0.60845   0.42327  -0.07633   0.00000  Uiso   1.00
O702   O     0.55630   0.36320  -0.05640   0.00000  Uiso   1.00
O703   O     0.55710   0.44310  -0.13510   0.00000  Uiso   1.00
O704   O     0.66020   0.38890  -0.11160   0.00000  Uiso   1.00
O705   O     0.77680   0.29190   0.32400   0.00000  Uiso   1.00
N706   N     0.77900   0.34920   0.32400   0.00000  Uiso   1.00
C707   C     0.74720   0.37810   0.36200   0.00000  Uiso   1.00
H708   H     0.72390   0.35780   0.38760   0.00000  Uiso   1.00
C709   C     0.74800   0.43590   0.36410   0.00000  Uiso   1.00
H710   H     0.72490   0.45490   0.39070   0.00000  Uiso   1.00
C711   C     0.78340   0.46840   0.32670   0.00000  Uiso   1.00
C712   C     0.81720   0.43690   0.28980   0.00000  Uiso   1.00
H713   H     0.84180   0.45640   0.26490   0.00000  Uiso   1.00
C714   C     0.81610   0.37600   0.28810   0.00000  Uiso   1.00
H715   H     0.83990   0.35540   0.26330   0.00000  Uiso   1.00
H716   H     0.86940   0.25030   0.53380   0.00000  Uiso   1.00
W717   W    -0.10845   0.07673   0.42367   0.00000  Uiso   1.00
O718   O    -0.05630   0.13680   0.44360   0.00000  Uiso   1.00
O719   O    -0.05710   0.05690   0.36490   0.00000  Uiso   1.00
O720   O    -0.16020   0.11110   0.38840   0.00000  Uiso   1.00
O721   O     0.27680   0.79190   0.82400   0.00000  Uiso   1.00
N722   N     0.27900   0.84920   0.82400   0.00000  Uiso   1.00
C723   C     0.24720   0.87810   0.86200   0.00000  Uiso   1.00
H724   H     0.22390   0.85780   0.88760   0.00000  Uiso   1.00
C725   C     0.24800   0.93590   0.86410   0.00000  Uiso   1.00
H726   H     0.22490   0.95490   0.89070   0.00000  Uiso   1.00
C727   C     0.28340   0.96840   0.82670   0.00000  Uiso   1.00
C728   C     0.31720   0.93690   0.78980   0.00000  Uiso   1.00
H729   H     0.34180   0.95640   0.76490   0.00000  Uiso   1.00
C730   C     0.31610   0.87600   0.78810   0.00000  Uiso   1.00
H731   H     0.33990   0.85540   0.76330   0.00000  Uiso   1.00
H732   H     0.36940   0.75030   0.03380   0.00000  Uiso   1.00
W733   W     0.39155   0.57673  -0.07633   0.00000  Uiso   1.00
O734   O     0.44370   0.63680  -0.05640   0.00000  Uiso   1.00
O735   O     0.44290   0.55690  -0.13510   0.00000  Uiso   1.00
O736   O     0.33980   0.61110  -0.11160   0.00000  Uiso   1.00
O737   O     0.22320   0.29190   0.67600   0.00000  Uiso   1.00
N738   N     0.22100   0.34920   0.67600   0.00000  Uiso   1.00
C739   C     0.25280   0.37810   0.63800   0.00000  Uiso   1.00
H740   H     0.27610   0.35780   0.61240   0.00000  Uiso   1.00
C741   C     0.25200   0.43590   0.63590   0.00000  Uiso   1.00
H742   H     0.27510   0.45490   0.60930   0.00000  Uiso   1.00
C743   C     0.21660   0.46840   0.67330   0.00000  Uiso   1.00
C744   C     0.18280   0.43690   0.71020   0.00000  Uiso   1.00
H745   H     0.15820   0.45640   0.73510   0.00000  Uiso   1.00
C746   C     0.18390   0.37600   0.71190   0.00000  Uiso   1.00
H747   H     0.16010   0.35540   0.73670   0.00000  Uiso   1.00
H748   H     0.13060   0.25030   0.46620   0.00000  Uiso   1.00
W749   W     0.10845   0.07673   0.57633   0.00000  Uiso   1.00
O750   O     0.05630   0.13680   0.55640   0.00000  Uiso   1.00
O751   O     0.05710   0.05690   0.63510   0.00000  Uiso   1.00
O752   O     0.16020   0.11110   0.61160   0.00000  Uiso   1.00
O753   O     0.72320   0.79190   0.17600   0.00000  Uiso   1.00
N754   N     0.72100   0.84920   0.17600   0.00000  Uiso   1.00
C755   C     0.75280   0.87810   0.13800   0.00000  Uiso   1.00
H756   H     0.77610   0.85780   0.11240   0.00000  Uiso   1.00
C757   C     0.75200   0.93590   0.13590   0.00000  Uiso   1.00
H758   H     0.77510   0.95490   0.10930   0.00000  Uiso   1.00
C759   C     0.71660   0.96840   0.17330   0.00000  Uiso   1.00
C760   C     0.68280   0.93690   0.21020   0.00000  Uiso   1.00
H761   H     0.65820   0.95640   0.23510   0.00000  Uiso   1.00
C762   C     0.68390   0.87600   0.21190   0.00000  Uiso   1.00
H763   H     0.66010   0.85540   0.23670   0.00000  Uiso   1.00
H764   H     0.63060   0.75030  -0.03380   0.00000  Uiso   1.00
W765   W     0.60845   0.57673   0.07633   0.00000  Uiso   1.00
O766   O     0.55630   0.63680   0.05640   0.00000  Uiso   1.00
O767   O     0.55710   0.55690   0.13510   0.00000  Uiso   1.00
O768   O     0.66020   0.61110   0.11160   0.00000  Uiso   1.00
Cu769  Cu    0.25000   0.25000   0.25000   0.00000  Uiso   1.00
Cu770  Cu    0.75000   0.75000   0.25000   0.00000  Uiso   1.00
Cu771  Cu    0.75000   0.25000   0.75000   0.00000  Uiso   1.00
Cu772  Cu    0.25000   0.75000   0.75000   0.00000  Uiso   1.00
Cu773  Cu    0.75000   0.75000   0.75000   0.00000  Uiso   1.00
Cu774  Cu    0.25000   0.25000   0.75000   0.00000  Uiso   1.00
Cu775  Cu    0.25000   0.75000   0.25000   0.00000  Uiso   1.00
Cu776  Cu    0.75000   0.25000   0.25000   0.00000  Uiso   1.00
N777   N     0.50000   0.23210   0.32550   0.00000  Uiso   1.00
C778   C     0.50000   0.15430   0.24720   0.00000  Uiso   1.00
H779   H     0.50000   0.17370   0.21070   0.00000  Uiso   1.00
C780   C     0.50000   0.19850   0.28970   0.00000  Uiso   1.00
O781   O     0.50000   0.04120   0.05360   0.00000  Uiso   1.00
O782   O     0.50000   0.13680   0.08190   0.00000  Uiso   1.00
N783   N     0.00000   0.73210   0.82550   0.00000  Uiso   1.00
C784   C    -0.00000   0.65430   0.74720   0.00000  Uiso   1.00
H785   H    -0.00000   0.67370   0.71070   0.00000  Uiso   1.00
C786   C     0.00000   0.69850   0.78970   0.00000  Uiso   1.00
O787   O    -0.00000   0.54120   0.55360   0.00000  Uiso   1.00
O788   O    -0.00000   0.63680   0.58190   0.00000  Uiso   1.00
N789   N     0.50000   0.76790   0.32550   0.00000  Uiso   1.00
C790   C     0.50000   0.84570   0.24720   0.00000  Uiso   1.00
H791   H     0.50000   0.82630   0.21070   0.00000  Uiso   1.00
C792   C     0.50000   0.80150   0.28970   0.00000  Uiso   1.00
O793   O     0.50000  -0.04120   0.05360   0.00000  Uiso   1.00
O794   O     0.50000  -0.13680   0.08190   0.00000  Uiso   1.00
N795   N     0.00000   0.26790   0.82550   0.00000  Uiso   1.00
C796   C     0.00000   0.34570   0.74720   0.00000  Uiso   1.00
H797   H     0.00000   0.32630   0.71070   0.00000  Uiso   1.00
C798   C     0.00000   0.30150   0.78970   0.00000  Uiso   1.00
O799   O     0.00000   0.45880   0.55360   0.00000  Uiso   1.00
O800   O     0.00000   0.36320   0.58190   0.00000  Uiso   1.00
N801   N     0.50000   0.23210   0.67450   0.00000  Uiso   1.00
C802   C     0.50000   0.15430   0.75280   0.00000  Uiso   1.00
H803   H     0.50000   0.17370   0.78930   0.00000  Uiso   1.00
C804   C     0.50000   0.19850   0.71030   0.00000  Uiso   1.00
O805   O     0.50000   0.04120  -0.05360   0.00000  Uiso   1.00
O806   O     0.50000   0.13680  -0.08190   0.00000  Uiso   1.00
N807   N     0.00000   0.73210   0.17450   0.00000  Uiso   1.00
C808   C     0.00000   0.65430   0.25280   0.00000  Uiso   1.00
H809   H     0.00000   0.67370   0.28930   0.00000  Uiso   1.00
C810   C     0.00000   0.69850   0.21030   0.00000  Uiso   1.00
O811   O     0.00000   0.54120   0.44640   0.00000  Uiso   1.00
O812   O     0.00000   0.63680   0.41810   0.00000  Uiso   1.00
N813   N     0.50000   0.76790   0.67450   0.00000  Uiso   1.00
C814   C     0.50000   0.84570   0.75280   0.00000  Uiso   1.00
H815   H     0.50000   0.82630   0.78930   0.00000  Uiso   1.00
C816   C     0.50000   0.80150   0.71030   0.00000  Uiso   1.00
O817   O     0.50000  -0.04120  -0.05360   0.00000  Uiso   1.00
O818   O     0.50000  -0.13680  -0.08190   0.00000  Uiso   1.00
N819   N    -0.00000   0.26790   0.17450   0.00000  Uiso   1.00
C820   C     0.00000   0.34570   0.25280   0.00000  Uiso   1.00
H821   H     0.00000   0.32630   0.28930   0.00000  Uiso   1.00
C822   C    -0.00000   0.30150   0.21030   0.00000  Uiso   1.00
O823   O    -0.00000   0.45880   0.44640   0.00000  Uiso   1.00
O824   O     0.00000   0.36320   0.41810   0.00000  Uiso   1.00
N825   N     0.32550   0.50000   0.23210   0.00000  Uiso   1.00
C826   C     0.24720   0.50000   0.15430   0.00000  Uiso   1.00
H827   H     0.21070   0.50000   0.17370   0.00000  Uiso   1.00
C828   C     0.28970   0.50000   0.19850   0.00000  Uiso   1.00
O829   O     0.05360   0.50000   0.04120   0.00000  Uiso   1.00
O830   O     0.08190   0.50000   0.13680   0.00000  Uiso   1.00
N831   N     0.82550  -0.00000   0.73210   0.00000  Uiso   1.00
C832   C     0.74720  -0.00000   0.65430   0.00000  Uiso   1.00
H833   H     0.71070  -0.00000   0.67370   0.00000  Uiso   1.00
C834   C     0.78970   0.00000   0.69850   0.00000  Uiso   1.00
O835   O     0.55360  -0.00000   0.54120   0.00000  Uiso   1.00
O836   O     0.58190  -0.00000   0.63680   0.00000  Uiso   1.00
N837   N     0.32550   0.50000   0.76790   0.00000  Uiso   1.00
C838   C     0.24720   0.50000   0.84570   0.00000  Uiso   1.00
H839   H     0.21070   0.50000   0.82630   0.00000  Uiso   1.00
C840   C     0.28970   0.50000   0.80150   0.00000  Uiso   1.00
O841   O     0.05360   0.50000  -0.04120   0.00000  Uiso   1.00
O842   O     0.08190   0.50000  -0.13680   0.00000  Uiso   1.00
N843   N     0.82550   0.00000   0.26790   0.00000  Uiso   1.00
C844   C     0.74720   0.00000   0.34570   0.00000  Uiso   1.00
H845   H     0.71070   0.00000   0.32630   0.00000  Uiso   1.00
C846   C     0.78970   0.00000   0.30150   0.00000  Uiso   1.00
O847   O     0.55360   0.00000   0.45880   0.00000  Uiso   1.00
O848   O     0.58190   0.00000   0.36320   0.00000  Uiso   1.00
N849   N     0.67450   0.50000   0.23210   0.00000  Uiso   1.00
C850   C     0.75280   0.50000   0.15430   0.00000  Uiso   1.00
H851   H     0.78930   0.50000   0.17370   0.00000  Uiso   1.00
C852   C     0.71030   0.50000   0.19850   0.00000  Uiso   1.00
O853   O    -0.05360   0.50000   0.04120   0.00000  Uiso   1.00
O854   O    -0.08190   0.50000   0.13680   0.00000  Uiso   1.00
N855   N     0.17450   0.00000   0.73210   0.00000  Uiso   1.00
C856   C     0.25280   0.00000   0.65430   0.00000  Uiso   1.00
H857   H     0.28930   0.00000   0.67370   0.00000  Uiso   1.00
C858   C     0.21030   0.00000   0.69850   0.00000  Uiso   1.00
O859   O     0.44640   0.00000   0.54120   0.00000  Uiso   1.00
O860   O     0.41810   0.00000   0.63680   0.00000  Uiso   1.00
N861   N     0.67450   0.50000   0.76790   0.00000  Uiso   1.00
C862   C     0.75280   0.50000   0.84570   0.00000  Uiso   1.00
H863   H     0.78930   0.50000   0.82630   0.00000  Uiso   1.00
C864   C     0.71030   0.50000   0.80150   0.00000  Uiso   1.00
O865   O    -0.05360   0.50000  -0.04120   0.00000  Uiso   1.00
O866   O    -0.08190   0.50000  -0.13680   0.00000  Uiso   1.00
N867   N     0.17450  -0.00000   0.26790   0.00000  Uiso   1.00
C868   C     0.25280  -0.00000   0.34570   0.00000  Uiso   1.00
H869   H     0.28930  -0.00000   0.32630   0.00000  Uiso   1.00
C870   C     0.21030  -0.00000   0.30150   0.00000  Uiso   1.00
O871   O     0.44640  -0.00000   0.45880   0.00000  Uiso   1.00
O872   O     0.41810  -0.00000   0.36320   0.00000  Uiso   1.00
N873   N     0.23210   0.32550   0.50000   0.00000  Uiso   1.00
C874   C     0.15430   0.24720   0.50000   0.00000  Uiso   1.00
H875   H     0.17370   0.21070   0.50000   0.00000  Uiso   1.00
C876   C     0.19850   0.28970   0.50000   0.00000  Uiso   1.00
O877   O     0.04120   0.05360   0.50000   0.00000  Uiso   1.00
O878   O     0.13680   0.08190   0.50000   0.00000  Uiso   1.00
N879   N     0.73210   0.82550  -0.00000   0.00000  Uiso   1.00
C880   C     0.65430   0.74720  -0.00000   0.00000  Uiso   1.00
H881   H     0.67370   0.71070  -0.00000   0.00000  Uiso   1.00
C882   C     0.69850   0.78970  -0.00000   0.00000  Uiso   1.00
O883   O     0.54120   0.55360  -0.00000   0.00000  Uiso   1.00
O884   O     0.63680   0.58190  -0.00000   0.00000  Uiso   1.00
N885   N     0.76790   0.32550   0.50000   0.00000  Uiso   1.00
C886   C     0.84570   0.24720   0.50000   0.00000  Uiso   1.00
H887   H     0.82630   0.21070   0.50000   0.00000  Uiso   1.00
C888   C     0.80150   0.28970   0.50000   0.00000  Uiso   1.00
O889   O    -0.04120   0.05360   0.50000   0.00000  Uiso   1.00
O890   O    -0.13680   0.08190   0.50000   0.00000  Uiso   1.00
N891   N     0.26790   0.82550   0.00000   0.00000  Uiso   1.00
C892   C     0.34570   0.74720   0.00000   0.00000  Uiso   1.00
H893   H     0.32630   0.71070   0.00000   0.00000  Uiso   1.00
C894   C     0.30150   0.78970   0.00000   0.00000  Uiso   1.00
O895   O     0.45880   0.55360   0.00000   0.00000  Uiso   1.00
O896   O     0.36320   0.58190   0.00000   0.00000  Uiso   1.00
N897   N     0.23210   0.67450   0.50000   0.00000  Uiso   1.00
C898   C     0.15430   0.75280   0.50000   0.00000  Uiso   1.00
H899   H     0.17370   0.78930   0.50000   0.00000  Uiso   1.00
C900   C     0.19850   0.71030   0.50000   0.00000  Uiso   1.00
O901   O     0.04120  -0.05360   0.50000   0.00000  Uiso   1.00
O902   O     0.13680  -0.08190   0.50000   0.00000  Uiso   1.00
N903   N     0.73210   0.17450   0.00000   0.00000  Uiso   1.00
C904   C     0.65430   0.25280   0.00000   0.00000  Uiso   1.00
H905   H     0.67370   0.28930   0.00000   0.00000  Uiso   1.00
C906   C     0.69850   0.21030   0.00000   0.00000  Uiso   1.00
O907   O     0.54120   0.44640   0.00000   0.00000  Uiso   1.00
O908   O     0.63680   0.41810   0.00000   0.00000  Uiso   1.00
N909   N     0.76790   0.67450   0.50000   0.00000  Uiso   1.00
C910   C     0.84570   0.75280   0.50000   0.00000  Uiso   1.00
H911   H     0.82630   0.78930   0.50000   0.00000  Uiso   1.00
C912   C     0.80150   0.71030   0.50000   0.00000  Uiso   1.00
O913   O    -0.04120  -0.05360   0.50000   0.00000  Uiso   1.00
O914   O    -0.13680  -0.08190   0.50000   0.00000  Uiso   1.00
N915   N     0.26790   0.17450  -0.00000   0.00000  Uiso   1.00
C916   C     0.34570   0.25280  -0.00000   0.00000  Uiso   1.00
H917   H     0.32630   0.28930  -0.00000   0.00000  Uiso   1.00
C918   C     0.30150   0.21030  -0.00000   0.00000  Uiso   1.00
O919   O     0.45880   0.44640  -0.00000   0.00000  Uiso   1.00
O920   O     0.36320   0.41810  -0.00000   0.00000  Uiso   1.00
W921   W     0.34700  -0.00000   0.00000   0.00000  Uiso   1.00
O922   O     0.27610  -0.00000   0.00000   0.00000  Uiso   1.00
W923   W    -0.15300   0.50000   0.50000   0.00000  Uiso   1.00
O924   O    -0.22390   0.50000   0.50000   0.00000  Uiso   1.00
W925   W     0.65300   0.00000   0.00000   0.00000  Uiso   1.00
O926   O     0.72390  -0.00000   0.00000   0.00000  Uiso   1.00
W927   W     0.15300   0.50000   0.50000   0.00000  Uiso   1.00
O928   O     0.22390   0.50000   0.50000   0.00000  Uiso   1.00
W929   W     0.00000   0.34700  -0.00000   0.00000  Uiso   1.00
O930   O     0.00000   0.27610  -0.00000   0.00000  Uiso   1.00
W931   W     0.50000  -0.15300   0.50000   0.00000  Uiso   1.00
O932   O     0.50000  -0.22390   0.50000   0.00000  Uiso   1.00
W933   W     0.00000   0.65300   0.00000   0.00000  Uiso   1.00
O934   O     0.00000   0.72390   0.00000   0.00000  Uiso   1.00
W935   W     0.50000   0.15300   0.50000   0.00000  Uiso   1.00
O936   O     0.50000   0.22390   0.50000   0.00000  Uiso   1.00
W937   W    -0.00000   0.00000   0.34700   0.00000  Uiso   1.00
O938   O    -0.00000   0.00000   0.27610   0.00000  Uiso   1.00
W939   W     0.50000   0.50000  -0.15300   0.00000  Uiso   1.00
O940   O     0.50000   0.50000  -0.22390   0.00000  Uiso   1.00
W941   W     0.00000  -0.00000   0.65300   0.00000  Uiso   1.00
O942   O    -0.00000   0.00000   0.72390   0.00000  Uiso   1.00
W943   W     0.50000   0.50000   0.15300   0.00000  Uiso   1.00
O944   O     0.50000   0.50000   0.22390   0.00000  Uiso   1.00
W945   W     0.50000  -0.00000   0.15383   0.00000  Uiso   1.00
O946   O     0.50000  -0.00000   0.22630   0.00000  Uiso   1.00
W947   W     0.00000   0.50000   0.65383   0.00000  Uiso   1.00
O948   O     0.00000   0.50000   0.72630   0.00000  Uiso   1.00
W949   W     0.50000  -0.00000  -0.15383   0.00000  Uiso   1.00
O950   O     0.50000  -0.00000  -0.22630   0.00000  Uiso   1.00
W951   W     0.00000   0.50000   0.34617   0.00000  Uiso   1.00
O952   O     0.00000   0.50000   0.27370   0.00000  Uiso   1.00
W953   W     0.15383   0.50000  -0.00000   0.00000  Uiso   1.00
O954   O     0.22630   0.50000  -0.00000   0.00000  Uiso   1.00
W955   W     0.65383   0.00000   0.50000   0.00000  Uiso   1.00
O956   O     0.72630   0.00000   0.50000   0.00000  Uiso   1.00
W957   W    -0.15383   0.50000  -0.00000   0.00000  Uiso   1.00
O958   O    -0.22630   0.50000  -0.00000   0.00000  Uiso   1.00
W959   W     0.34617   0.00000   0.50000   0.00000  Uiso   1.00
O960   O     0.27370   0.00000   0.50000   0.00000  Uiso   1.00
W961   W    -0.00000   0.15383   0.50000   0.00000  Uiso   1.00
O962   O     0.00000   0.22630   0.50000   0.00000  Uiso   1.00
W963   W     0.50000   0.65383  -0.00000   0.00000  Uiso   1.00
O964   O     0.50000   0.72630   0.00000   0.00000  Uiso   1.00
W965   W    -0.00000  -0.15383   0.50000   0.00000  Uiso   1.00
O966   O    -0.00000  -0.22630   0.50000   0.00000  Uiso   1.00
W967   W     0.50000   0.34617   0.00000   0.00000  Uiso   1.00
O968   O     0.50000   0.27370  -0.00000   0.00000  Uiso   1.00
P969   P     0.50000  -0.00000   0.00000   0.00000  Uiso   1.00
P970   P     0.00000   0.50000   0.50000   0.00000  Uiso   1.00
P971   P     0.00000   0.50000  -0.00000   0.00000  Uiso   1.00
P972   P     0.50000   0.00000   0.50000   0.00000  Uiso   1.00
P973   P    -0.00000   0.00000   0.50000   0.00000  Uiso   1.00
P974   P     0.50000   0.50000  -0.00000   0.00000  Uiso   1.00
O975   O     0.41970   0.13450  -0.00000   0.00000  Uiso   1.00
O976   O    -0.08030   0.63450   0.50000   0.00000  Uiso   1.00
O977   O     0.58030  -0.13450  -0.00000   0.00000  Uiso   1.00
O978   O     0.08030   0.36550   0.50000   0.00000  Uiso   1.00
O979   O     0.58030   0.13450   0.00000   0.00000  Uiso   1.00
O980   O     0.08030   0.63450   0.50000   0.00000  Uiso   1.00
O981   O     0.41970  -0.13450   0.00000   0.00000  Uiso   1.00
O982   O    -0.08030   0.36550   0.50000   0.00000  Uiso   1.00
O983   O    -0.00000   0.41970   0.13450   0.00000  Uiso   1.00
O984   O     0.50000  -0.08030   0.63450   0.00000  Uiso   1.00
O985   O    -0.00000   0.58030  -0.13450   0.00000  Uiso   1.00
O986   O     0.50000   0.08030   0.36550   0.00000  Uiso   1.00
O987   O     0.00000   0.58030   0.13450   0.00000  Uiso   1.00
O988   O     0.50000   0.08030   0.63450   0.00000  Uiso   1.00
O989   O     0.00000   0.41970  -0.13450   0.00000  Uiso   1.00
O990   O     0.50000  -0.08030   0.36550   0.00000  Uiso   1.00
O991   O     0.13450  -0.00000   0.41970   0.00000  Uiso   1.00
O992   O     0.63450   0.50000  -0.08030   0.00000  Uiso   1.00
O993   O    -0.13450  -0.00000   0.58030   0.00000  Uiso   1.00
O994   O     0.36550   0.50000   0.08030   0.00000  Uiso   1.00
O995   O     0.13450   0.00000   0.58030   0.00000  Uiso   1.00
O996   O     0.63450   0.50000   0.08030   0.00000  Uiso   1.00
O997   O    -0.13450   0.00000   0.41970   0.00000  Uiso   1.00
O998   O     0.36550   0.50000  -0.08030   0.00000  Uiso   1.00
loop_
_geom_bond_atom_site_label_1
_geom_bond_atom_site_label_2
_geom_bond_distance
_geom_bond_site_symmetry_2
_ccdc_geom_bond_type
O1     Cu769   2.068   .     S
O1     N2      1.330   .     S
N2     C3      1.330   .     S
N2     C10     1.349   .     S
C3     H4      0.931   .     S
C3     C5      1.341   .     S
C5     H6      0.928   .     S
C5     C7      1.412   .     S
C7     C8      1.371   .     S
C7     C423    1.466   .     S
C8     H9      0.929   .     S
C8     C10     1.413   .     S
C10    H11     0.929   .     S
H12    C778    0.960   .     S
W13    O781    2.419   .     S
W13    O14     1.902   .     S
W13    O782    1.892   .     S
W13    O975    1.881   .     S
W13    O15     1.867   .     S
W13    O16     1.657   .     S
O14    W945    1.890   .     S
O15    W921    1.915   .     S
O17    Cu773   2.068   .     S
O17    N18     1.330   .     S
N18    C19     1.330   .     S
N18    C26     1.349   .     S
C19    H20     0.931   .     S
C19    C21     1.341   .     S
C21    H22     0.928   .     S
C21    C23     1.412   .     S
C23    C24     1.371   .     S
C23    C439    1.466   1_556 S
C24    H25     0.929   .     S
C24    C26     1.413   .     S
C26    H27     0.929   .     S
H28    C784    0.960   .     S
W29    O787    2.419   .     S
W29    O30     1.902   .     S
W29    O788    1.892   .     S
W29    O976    1.881   .     S
W29    O31     1.867   .     S
W29    O32     1.657   .     S
O30    W947    1.890   .     S
O31    W923    1.915   .     S
O33    Cu770   2.068   .     S
O33    N34     1.330   .     S
N34    C35     1.330   .     S
N34    C42     1.349   .     S
C35    H36     0.931   .     S
C35    C37     1.341   .     S
C37    H38     0.928   .     S
C37    C39     1.412   .     S
C39    C40     1.371   .     S
C39    C391    1.466   .     S
C40    H41     0.929   .     S
C40    C42     1.413   .     S
C42    H43     0.929   .     S
H44    C790    0.960   .     S
W45    O793    2.419   .     S
W45    O46     1.902   .     S
W45    O794    1.892   .     S
W45    O977    1.881   .     S
W45    O47     1.867   .     S
W45    O48     1.657   .     S
O46    W945    1.890   .     S
O47    W925    1.915   .     S
O49    Cu774   2.068   .     S
O49    N50     1.330   .     S
N50    C51     1.330   .     S
N50    C58     1.349   .     S
C51    H52     0.931   .     S
C51    C53     1.341   .     S
C53    H54     0.928   .     S
C53    C55     1.412   .     S
C55    C56     1.371   .     S
C55    C407    1.466   1_556 S
C56    H57     0.929   .     S
C56    C58     1.413   .     S
C58    H59     0.929   .     S
H60    C796    0.960   .     S
W61    O799    2.419   .     S
W61    O62     1.902   .     S
W61    O800    1.892   .     S
W61    O978    1.881   .     S
W61    O63     1.867   .     S
W61    O64     1.657   .     S
O62    W947    1.890   .     S
O63    W927    1.915   .     S
O65    Cu771   2.068   .     S
O65    N66     1.330   .     S
N66    C67     1.330   .     S
N66    C74     1.349   .     S
C67    H68     0.931   .     S
C67    C69     1.341   .     S
C69    H70     0.928   .     S
C69    C71     1.412   .     S
C71    C72     1.371   .     S
C71    C487    1.466   .     S
C72    H73     0.929   .     S
C72    C74     1.413   .     S
C74    H75     0.929   .     S
H76    C802    0.960   .     S
W77    O805    2.419   .     S
W77    O78     1.902   .     S
W77    O806    1.892   .     S
W77    O979    1.881   .     S
W77    O79     1.867   .     S
W77    O80     1.657   .     S
O78    W949    1.890   .     S
O79    W925    1.915   .     S
O81    Cu775   2.068   .     S
O81    N82     1.330   .     S
N82    C83     1.330   .     S
N82    C90     1.349   .     S
C83    H84     0.931   .     S
C83    C85     1.341   .     S
C85    H86     0.928   .     S
C85    C87     1.412   .     S
C87    C88     1.371   .     S
C87    C503    1.466   1_554 S
C88    H89     0.929   .     S
C88    C90     1.413   .     S
C90    H91     0.929   .     S
H92    C808    0.960   .     S
W93    O811    2.419   .     S
W93    O94     1.902   .     S
W93    O812    1.892   .     S
W93    O980    1.881   .     S
W93    O95     1.867   .     S
W93    O96     1.657   .     S
O94    W951    1.890   .     S
O95    W927    1.915   .     S
O97    Cu772   2.068   .     S
O97    N98     1.330   .     S
N98    C99     1.330   .     S
N98    C106    1.349   .     S
C99    H100    0.931   .     S
C99    C101    1.341   .     S
C101   H102    0.928   .     S
C101   C103    1.412   .     S
C103   C104    1.371   .     S
C103   C455    1.466   .     S
C104   H105    0.929   .     S
C104   C106    1.413   .     S
C106   H107    0.929   .     S
H108   C814    0.960   .     S
W109   O817    2.419   .     S
W109   O110    1.902   .     S
W109   O818    1.892   .     S
W109   O981    1.881   .     S
W109   O111    1.867   .     S
W109   O112    1.657   .     S
O110   W949    1.890   .     S
O111   W921    1.915   .     S
O113   Cu776   2.068   .     S
O113   N114    1.330   .     S
N114   C115    1.330   .     S
N114   C122    1.349   .     S
C115   H116    0.931   .     S
C115   C117    1.341   .     S
C117   H118    0.928   .     S
C117   C119    1.412   .     S
C119   C120    1.371   .     S
C119   C471    1.466   1_554 S
C120   H121    0.929   .     S
C120   C122    1.413   .     S
C122   H123    0.929   .     S
H124   C820    0.960   .     S
W125   O823    2.419   .     S
W125   O126    1.902   .     S
W125   O824    1.892   .     S
W125   O982    1.881   .     S
W125   O127    1.867   .     S
W125   O128    1.657   .     S
O126   W951    1.890   .     S
O127   W923    1.915   .     S
O129   Cu769   2.068   .     S
O129   N130    1.330   .     S
N130   C131    1.330   .     S
N130   C138    1.349   .     S
C131   H132    0.931   .     S
C131   C133    1.341   .     S
C133   H134    0.928   .     S
C133   C135    1.412   .     S
C135   C136    1.371   .     S
C135   C551    1.466   .     S
C136   H137    0.929   .     S
C136   C138    1.413   .     S
C138   H139    0.929   .     S
H140   C826    0.960   .     S
W141   O829    2.419   .     S
W141   O142    1.902   .     S
W141   O830    1.892   .     S
W141   O983    1.881   .     S
W141   O143    1.867   .     S
W141   O144    1.657   .     S
O142   W953    1.890   .     S
O143   W929    1.915   .     S
O145   Cu773   2.068   .     S
O145   N146    1.330   .     S
N146   C147    1.330   .     S
N146   C154    1.349   .     S
C147   H148    0.931   .     S
C147   C149    1.341   .     S
C149   H150    0.928   .     S
C149   C151    1.412   .     S
C151   C152    1.371   .     S
C151   C567    1.466   1_655 S
C152   H153    0.929   .     S
C152   C154    1.413   .     S
C154   H155    0.929   .     S
H156   C832    0.960   .     S
W157   O835    2.419   .     S
W157   O158    1.902   .     S
W157   O836    1.892   .     S
W157   O984    1.881   .     S
W157   O159    1.867   .     S
W157   O160    1.657   .     S
O158   W955    1.890   .     S
O159   W931    1.915   .     S
O161   Cu772   2.068   .     S
O161   N162    1.330   .     S
N162   C163    1.330   .     S
N162   C170    1.349   .     S
C163   H164    0.931   .     S
C163   C165    1.341   .     S
C165   H166    0.928   .     S
C165   C167    1.412   .     S
C167   C168    1.371   .     S
C167   C519    1.466   .     S
C168   H169    0.929   .     S
C168   C170    1.413   .     S
C170   H171    0.929   .     S
H172   C838    0.960   .     S
W173   O841    2.419   .     S
W173   O174    1.902   .     S
W173   O842    1.892   .     S
W173   O985    1.881   .     S
W173   O175    1.867   .     S
W173   O176    1.657   .     S
O174   W953    1.890   .     S
O175   W933    1.915   .     S
O177   Cu776   2.068   .     S
O177   N178    1.330   .     S
N178   C179    1.330   .     S
N178   C186    1.349   .     S
C179   H180    0.931   .     S
C179   C181    1.341   .     S
C181   H182    0.928   .     S
C181   C183    1.412   .     S
C183   C184    1.371   .     S
C183   C535    1.466   1_655 S
C184   H185    0.929   .     S
C184   C186    1.413   .     S
C186   H187    0.929   .     S
H188   C844    0.960   .     S
W189   O847    2.419   .     S
W189   O190    1.902   .     S
W189   O848    1.892   .     S
W189   O986    1.881   .     S
W189   O191    1.867   .     S
W189   O192    1.657   .     S
O190   W955    1.890   .     S
O191   W935    1.915   .     S
O193   Cu770   2.068   .     S
O193   N194    1.330   .     S
N194   C195    1.330   .     S
N194   C202    1.349   .     S
C195   H196    0.931   .     S
C195   C197    1.341   .     S
C197   H198    0.928   .     S
C197   C199    1.412   .     S
C199   C200    1.371   .     S
C199   C615    1.466   .     S
C200   H201    0.929   .     S
C200   C202    1.413   .     S
C202   H203    0.929   .     S
H204   C850    0.960   .     S
W205   O853    2.419   .     S
W205   O206    1.902   .     S
W205   O854    1.892   .     S
W205   O987    1.881   .     S
W205   O207    1.867   .     S
W205   O208    1.657   .     S
O206   W957    1.890   .     S
O207   W933    1.915   .     S
O209   Cu774   2.068   .     S
O209   N210    1.330   .     S
N210   C211    1.330   .     S
N210   C218    1.349   .     S
C211   H212    0.931   .     S
C211   C213    1.341   .     S
C213   H214    0.928   .     S
C213   C215    1.412   .     S
C215   C216    1.371   .     S
C215   C631    1.466   1_455 S
C216   H217    0.929   .     S
C216   C218    1.413   .     S
C218   H219    0.929   .     S
H220   C856    0.960   .     S
W221   O859    2.419   .     S
W221   O222    1.902   .     S
W221   O860    1.892   .     S
W221   O988    1.881   .     S
W221   O223    1.867   .     S
W221   O224    1.657   .     S
O222   W959    1.890   .     S
O223   W935    1.915   .     S
O225   Cu771   2.068   .     S
O225   N226    1.330   .     S
N226   C227    1.330   .     S
N226   C234    1.349   .     S
C227   H228    0.931   .     S
C227   C229    1.341   .     S
C229   H230    0.928   .     S
C229   C231    1.412   .     S
C231   C232    1.371   .     S
C231   C583    1.466   .     S
C232   H233    0.929   .     S
C232   C234    1.413   .     S
C234   H235    0.929   .     S
H236   C862    0.960   .     S
W237   O865    2.419   .     S
W237   O238    1.902   .     S
W237   O866    1.892   .     S
W237   O989    1.881   .     S
W237   O239    1.867   .     S
W237   O240    1.657   .     S
O238   W957    1.890   .     S
O239   W929    1.915   .     S
O241   Cu775   2.068   .     S
O241   N242    1.330   .     S
N242   C243    1.330   .     S
N242   C250    1.349   .     S
C243   H244    0.931   .     S
C243   C245    1.341   .     S
C245   H246    0.928   .     S
C245   C247    1.412   .     S
C247   C248    1.371   .     S
C247   C599    1.466   1_455 S
C248   H249    0.929   .     S
C248   C250    1.413   .     S
C250   H251    0.929   .     S
H252   C868    0.960   .     S
W253   O871    2.419   .     S
W253   O254    1.902   .     S
W253   O872    1.892   .     S
W253   O990    1.881   .     S
W253   O255    1.867   .     S
W253   O256    1.657   .     S
O254   W959    1.890   .     S
O255   W931    1.915   .     S
O257   Cu769   2.068   .     S
O257   N258    1.330   .     S
N258   C259    1.330   .     S
N258   C266    1.349   .     S
C259   H260    0.931   .     S
C259   C261    1.341   .     S
C261   H262    0.928   .     S
C261   C263    1.412   .     S
C263   C264    1.371   .     S
C263   C679    1.466   .     S
C264   H265    0.929   .     S
C264   C266    1.413   .     S
C266   H267    0.929   .     S
H268   C874    0.960   .     S
W269   O877    2.419   .     S
W269   O270    1.902   .     S
W269   O878    1.892   .     S
W269   O991    1.881   .     S
W269   O271    1.867   .     S
W269   O272    1.657   .     S
O270   W961    1.890   .     S
O271   W937    1.915   .     S
O273   Cu773   2.068   .     S
O273   N274    1.330   .     S
N274   C275    1.330   .     S
N274   C282    1.349   .     S
C275   H276    0.931   .     S
C275   C277    1.341   .     S
C277   H278    0.928   .     S
C277   C279    1.412   .     S
C279   C280    1.371   .     S
C279   C695    1.466   1_565 S
C280   H281    0.929   .     S
C280   C282    1.413   .     S
C282   H283    0.929   .     S
H284   C880    0.960   .     S
W285   O883    2.419   .     S
W285   O286    1.902   .     S
W285   O884    1.892   .     S
W285   O992    1.881   .     S
W285   O287    1.867   .     S
W285   O288    1.657   .     S
O286   W963    1.890   .     S
O287   W939    1.915   .     S
O289   Cu771   2.068   .     S
O289   N290    1.330   .     S
N290   C291    1.330   .     S
N290   C298    1.349   .     S
C291   H292    0.931   .     S
C291   C293    1.341   .     S
C293   H294    0.928   .     S
C293   C295    1.412   .     S
C295   C296    1.371   .     S
C295   C647    1.466   .     S
C296   H297    0.929   .     S
C296   C298    1.413   .     S
C298   H299    0.929   .     S
H300   C886    0.960   .     S
W301   O889    2.419   .     S
W301   O302    1.902   .     S
W301   O890    1.892   .     S
W301   O993    1.881   .     S
W301   O303    1.867   .     S
W301   O304    1.657   .     S
O302   W961    1.890   .     S
O303   W941    1.915   .     S
O305   Cu775   2.068   .     S
O305   N306    1.330   .     S
N306   C307    1.330   .     S
N306   C314    1.349   .     S
C307   H308    0.931   .     S
C307   C309    1.341   .     S
C309   H310    0.928   .     S
C309   C311    1.412   .     S
C311   C312    1.371   .     S
C311   C663    1.466   1_565 S
C312   H313    0.929   .     S
C312   C314    1.413   .     S
C314   H315    0.929   .     S
H316   C892    0.960   .     S
W317   O895    2.419   .     S
W317   O318    1.902   .     S
W317   O896    1.892   .     S
W317   O994    1.881   .     S
W317   O319    1.867   .     S
W317   O320    1.657   .     S
O318   W963    1.890   .     S
O319   W943    1.915   .     S
O321   Cu772   2.068   .     S
O321   N322    1.330   .     S
N322   C323    1.330   .     S
N322   C330    1.349   .     S
C323   H324    0.931   .     S
C323   C325    1.341   .     S
C325   H326    0.928   .     S
C325   C327    1.412   .     S
C327   C328    1.371   .     S
C327   C743    1.466   .     S
C328   H329    0.929   .     S
C328   C330    1.413   .     S
C330   H331    0.929   .     S
H332   C898    0.960   .     S
W333   O901    2.419   .     S
W333   O334    1.902   .     S
W333   O902    1.892   .     S
W333   O995    1.881   .     S
W333   O335    1.867   .     S
W333   O336    1.657   .     S
O334   W965    1.890   .     S
O335   W941    1.915   .     S
O337   Cu776   2.068   .     S
O337   N338    1.330   .     S
N338   C339    1.330   .     S
N338   C346    1.349   .     S
C339   H340    0.931   .     S
C339   C341    1.341   .     S
C341   H342    0.928   .     S
C341   C343    1.412   .     S
C343   C344    1.371   .     S
C343   C759    1.466   1_545 S
C344   H345    0.929   .     S
C344   C346    1.413   .     S
C346   H347    0.929   .     S
H348   C904    0.960   .     S
W349   O907    2.419   .     S
W349   O350    1.902   .     S
W349   O908    1.892   .     S
W349   O996    1.881   .     S
W349   O351    1.867   .     S
W349   O352    1.657   .     S
O350   W967    1.890   .     S
O351   W943    1.915   .     S
O353   Cu770   2.068   .     S
O353   N354    1.330   .     S
N354   C355    1.330   .     S
N354   C362    1.349   .     S
C355   H356    0.931   .     S
C355   C357    1.341   .     S
C357   H358    0.928   .     S
C357   C359    1.412   .     S
C359   C360    1.371   .     S
C359   C711    1.466   .     S
C360   H361    0.929   .     S
C360   C362    1.413   .     S
C362   H363    0.929   .     S
H364   C910    0.960   .     S
W365   O913    2.419   .     S
W365   O366    1.902   .     S
W365   O914    1.892   .     S
W365   O997    1.881   .     S
W365   O367    1.867   .     S
W365   O368    1.657   .     S
O366   W965    1.890   .     S
O367   W937    1.915   .     S
O369   Cu774   2.068   .     S
O369   N370    1.330   .     S
N370   C371    1.330   .     S
N370   C378    1.349   .     S
C371   H372    0.931   .     S
C371   C373    1.341   .     S
C373   H374    0.928   .     S
C373   C375    1.412   .     S
C375   C376    1.371   .     S
C375   C727    1.466   1_545 S
C376   H377    0.929   .     S
C376   C378    1.413   .     S
C378   H379    0.929   .     S
H380   C916    0.960   .     S
W381   O919    2.419   .     S
W381   O382    1.902   .     S
W381   O920    1.892   .     S
W381   O998    1.881   .     S
W381   O383    1.867   .     S
W381   O384    1.657   .     S
O382   W967    1.890   .     S
O383   W939    1.915   .     S
O385   Cu773   2.068   .     S
O385   N386    1.330   .     S
N386   C387    1.330   .     S
N386   C394    1.349   .     S
C387   H388    0.931   .     S
C387   C389    1.341   .     S
C389   H390    0.928   .     S
C389   C391    1.412   .     S
C391   C392    1.371   .     S
C392   H393    0.929   .     S
C392   C394    1.413   .     S
C394   H395    0.929   .     S
H396   C814    0.960   .     S
W397   O817    2.419   .     S
W397   O398    1.902   .     S
W397   O818    1.892   .     S
W397   O977    1.881   .     S
W397   O399    1.867   .     S
W397   O400    1.657   .     S
O398   W949    1.890   .     S
O399   W925    1.915   .     S
O401   Cu769   2.068   .     S
O401   N402    1.330   .     S
N402   C403    1.330   .     S
N402   C410    1.349   .     S
C403   H404    0.931   .     S
C403   C405    1.341   .     S
C405   H406    0.928   .     S
C405   C407    1.412   .     S
C407   C408    1.371   .     S
C407   C55     1.466   1_554 S
C408   H409    0.929   .     S
C408   C410    1.413   .     S
C410   H411    0.929   .     S
H412   C820    0.960   .     S
W413   O823    2.419   .     S
W413   O414    1.902   .     S
W413   O824    1.892   .     S
W413   O978    1.881   .     S
W413   O415    1.867   .     S
W413   O416    1.657   .     S
O414   W951    1.890   .     S
O415   W927    1.915   .     S
O417   Cu774   2.068   .     S
O417   N418    1.330   .     S
N418   C419    1.330   .     S
N418   C426    1.349   .     S
C419   H420    0.931   .     S
C419   C421    1.341   .     S
C421   H422    0.928   .     S
C421   C423    1.412   .     S
C423   C424    1.371   .     S
C424   H425    0.929   .     S
C424   C426    1.413   .     S
C426   H427    0.929   .     S
H428   C802    0.960   .     S
W429   O805    2.419   .     S
W429   O430    1.902   .     S
W429   O806    1.892   .     S
W429   O975    1.881   .     S
W429   O431    1.867   .     S
W429   O432    1.657   .     S
O430   W949    1.890   .     S
O431   W921    1.915   .     S
O433   Cu770   2.068   .     S
O433   N434    1.330   .     S
N434   C435    1.330   .     S
N434   C442    1.349   .     S
C435   H436    0.931   .     S
C435   C437    1.341   .     S
C437   H438    0.928   .     S
C437   C439    1.412   .     S
C439   C440    1.371   .     S
C439   C23     1.466   1_554 S
C440   H441    0.929   .     S
C440   C442    1.413   .     S
C442   H443    0.929   .     S
H444   C808    0.960   .     S
W445   O811    2.419   .     S
W445   O446    1.902   .     S
W445   O812    1.892   .     S
W445   O976    1.881   .     S
W445   O447    1.867   .     S
W445   O448    1.657   .     S
O446   W951    1.890   .     S
O447   W923    1.915   .     S
O449   Cu775   2.068   .     S
O449   N450    1.330   .     S
N450   C451    1.330   .     S
N450   C458    1.349   .     S
C451   H452    0.931   .     S
C451   C453    1.341   .     S
C453   H454    0.928   .     S
C453   C455    1.412   .     S
C455   C456    1.371   .     S
C456   H457    0.929   .     S
C456   C458    1.413   .     S
C458   H459    0.929   .     S
H460   C790    0.960   .     S
W461   O793    2.419   .     S
W461   O462    1.902   .     S
W461   O794    1.892   .     S
W461   O981    1.881   .     S
W461   O463    1.867   .     S
W461   O464    1.657   .     S
O462   W945    1.890   .     S
O463   W921    1.915   .     S
O465   Cu771   2.068   .     S
O465   N466    1.330   .     S
N466   C467    1.330   .     S
N466   C474    1.349   .     S
C467   H468    0.931   .     S
C467   C469    1.341   .     S
C469   H470    0.928   .     S
C469   C471    1.412   .     S
C471   C472    1.371   .     S
C471   C119    1.466   1_556 S
C472   H473    0.929   .     S
C472   C474    1.413   .     S
C474   H475    0.929   .     S
H476   C796    0.960   .     S
W477   O799    2.419   .     S
W477   O478    1.902   .     S
W477   O800    1.892   .     S
W477   O982    1.881   .     S
W477   O479    1.867   .     S
W477   O480    1.657   .     S
O478   W947    1.890   .     S
O479   W923    1.915   .     S
O481   Cu776   2.068   .     S
O481   N482    1.330   .     S
N482   C483    1.330   .     S
N482   C490    1.349   .     S
C483   H484    0.931   .     S
C483   C485    1.341   .     S
C485   H486    0.928   .     S
C485   C487    1.412   .     S
C487   C488    1.371   .     S
C488   H489    0.929   .     S
C488   C490    1.413   .     S
C490   H491    0.929   .     S
H492   C778    0.960   .     S
W493   O781    2.419   .     S
W493   O494    1.902   .     S
W493   O782    1.892   .     S
W493   O979    1.881   .     S
W493   O495    1.867   .     S
W493   O496    1.657   .     S
O494   W945    1.890   .     S
O495   W925    1.915   .     S
O497   Cu772   2.068   .     S
O497   N498    1.330   .     S
N498   C499    1.330   .     S
N498   C506    1.349   .     S
C499   H500    0.931   .     S
C499   C501    1.341   .     S
C501   H502    0.928   .     S
C501   C503    1.412   .     S
C503   C504    1.371   .     S
C503   C87     1.466   1_556 S
C504   H505    0.929   .     S
C504   C506    1.413   .     S
C506   H507    0.929   .     S
H508   C784    0.960   .     S
W509   O787    2.419   .     S
W509   O510    1.902   .     S
W509   O788    1.892   .     S
W509   O980    1.881   .     S
W509   O511    1.867   .     S
W509   O512    1.657   .     S
O510   W947    1.890   .     S
O511   W927    1.915   .     S
O513   Cu773   2.068   .     S
O513   N514    1.330   .     S
N514   C515    1.330   .     S
N514   C522    1.349   .     S
C515   H516    0.931   .     S
C515   C517    1.341   .     S
C517   H518    0.928   .     S
C517   C519    1.412   .     S
C519   C520    1.371   .     S
C520   H521    0.929   .     S
C520   C522    1.413   .     S
C522   H523    0.929   .     S
H524   C862    0.960   .     S
W525   O865    2.419   .     S
W525   O526    1.902   .     S
W525   O866    1.892   .     S
W525   O985    1.881   .     S
W525   O527    1.867   .     S
W525   O528    1.657   .     S
O526   W957    1.890   .     S
O527   W933    1.915   .     S
O529   Cu769   2.068   .     S
O529   N530    1.330   .     S
N530   C531    1.330   .     S
N530   C538    1.349   .     S
C531   H532    0.931   .     S
C531   C533    1.341   .     S
C533   H534    0.928   .     S
C533   C535    1.412   .     S
C535   C536    1.371   .     S
C535   C183    1.466   1_455 S
C536   H537    0.929   .     S
C536   C538    1.413   .     S
C538   H539    0.929   .     S
H540   C868    0.960   .     S
W541   O871    2.419   .     S
W541   O542    1.902   .     S
W541   O872    1.892   .     S
W541   O986    1.881   .     S
W541   O543    1.867   .     S
W541   O544    1.657   .     S
O542   W959    1.890   .     S
O543   W935    1.915   .     S
O545   Cu776   2.068   .     S
O545   N546    1.330   .     S
N546   C547    1.330   .     S
N546   C554    1.349   .     S
C547   H548    0.931   .     S
C547   C549    1.341   .     S
C549   H550    0.928   .     S
C549   C551    1.412   .     S
C551   C552    1.371   .     S
C552   H553    0.929   .     S
C552   C554    1.413   .     S
C554   H555    0.929   .     S
H556   C850    0.960   .     S
W557   O853    2.419   .     S
W557   O558    1.902   .     S
W557   O854    1.892   .     S
W557   O983    1.881   .     S
W557   O559    1.867   .     S
W557   O560    1.657   .     S
O558   W957    1.890   .     S
O559   W929    1.915   .     S
O561   Cu772   2.068   .     S
O561   N562    1.330   .     S
N562   C563    1.330   .     S
N562   C570    1.349   .     S
C563   H564    0.931   .     S
C563   C565    1.341   .     S
C565   H566    0.928   .     S
C565   C567    1.412   .     S
C567   C568    1.371   .     S
C567   C151    1.466   1_455 S
C568   H569    0.929   .     S
C568   C570    1.413   .     S
C570   H571    0.929   .     S
H572   C856    0.960   .     S
W573   O859    2.419   .     S
W573   O574    1.902   .     S
W573   O860    1.892   .     S
W573   O984    1.881   .     S
W573   O575    1.867   .     S
W573   O576    1.657   .     S
O574   W959    1.890   .     S
O575   W931    1.915   .     S
O577   Cu774   2.068   .     S
O577   N578    1.330   .     S
N578   C579    1.330   .     S
N578   C586    1.349   .     S
C579   H580    0.931   .     S
C579   C581    1.341   .     S
C581   H582    0.928   .     S
C581   C583    1.412   .     S
C583   C584    1.371   .     S
C584   H585    0.929   .     S
C584   C586    1.413   .     S
C586   H587    0.929   .     S
H588   C838    0.960   .     S
W589   O841    2.419   .     S
W589   O590    1.902   .     S
W589   O842    1.892   .     S
W589   O989    1.881   .     S
W589   O591    1.867   .     S
W589   O592    1.657   .     S
O590   W953    1.890   .     S
O591   W929    1.915   .     S
O593   Cu770   2.068   .     S
O593   N594    1.330   .     S
N594   C595    1.330   .     S
N594   C602    1.349   .     S
C595   H596    0.931   .     S
C595   C597    1.341   .     S
C597   H598    0.928   .     S
C597   C599    1.412   .     S
C599   C600    1.371   .     S
C599   C247    1.466   1_655 S
C600   H601    0.929   .     S
C600   C602    1.413   .     S
C602   H603    0.929   .     S
H604   C844    0.960   .     S
W605   O847    2.419   .     S
W605   O606    1.902   .     S
W605   O848    1.892   .     S
W605   O990    1.881   .     S
W605   O607    1.867   .     S
W605   O608    1.657   .     S
O606   W955    1.890   .     S
O607   W931    1.915   .     S
O609   Cu775   2.068   .     S
O609   N610    1.330   .     S
N610   C611    1.330   .     S
N610   C618    1.349   .     S
C611   H612    0.931   .     S
C611   C613    1.341   .     S
C613   H614    0.928   .     S
C613   C615    1.412   .     S
C615   C616    1.371   .     S
C616   H617    0.929   .     S
C616   C618    1.413   .     S
C618   H619    0.929   .     S
H620   C826    0.960   .     S
W621   O829    2.419   .     S
W621   O622    1.902   .     S
W621   O830    1.892   .     S
W621   O987    1.881   .     S
W621   O623    1.867   .     S
W621   O624    1.657   .     S
O622   W953    1.890   .     S
O623   W933    1.915   .     S
O625   Cu771   2.068   .     S
O625   N626    1.330   .     S
N626   C627    1.330   .     S
N626   C634    1.349   .     S
C627   H628    0.931   .     S
C627   C629    1.341   .     S
C629   H630    0.928   .     S
C629   C631    1.412   .     S
C631   C632    1.371   .     S
C631   C215    1.466   1_655 S
C632   H633    0.929   .     S
C632   C634    1.413   .     S
C634   H635    0.929   .     S
H636   C832    0.960   .     S
W637   O835    2.419   .     S
W637   O638    1.902   .     S
W637   O836    1.892   .     S
W637   O988    1.881   .     S
W637   O639    1.867   .     S
W637   O640    1.657   .     S
O638   W955    1.890   .     S
O639   W935    1.915   .     S
O641   Cu773   2.068   .     S
O641   N642    1.330   .     S
N642   C643    1.330   .     S
N642   C650    1.349   .     S
C643   H644    0.931   .     S
C643   C645    1.341   .     S
C645   H646    0.928   .     S
C645   C647    1.412   .     S
C647   C648    1.371   .     S
C648   H649    0.929   .     S
C648   C650    1.413   .     S
C650   H651    0.929   .     S
H652   C910    0.960   .     S
W653   O913    2.419   .     S
W653   O654    1.902   .     S
W653   O914    1.892   .     S
W653   O993    1.881   .     S
W653   O655    1.867   .     S
W653   O656    1.657   .     S
O654   W965    1.890   .     S
O655   W941    1.915   .     S
O657   Cu769   2.068   .     S
O657   N658    1.330   .     S
N658   C659    1.330   .     S
N658   C666    1.349   .     S
C659   H660    0.931   .     S
C659   C661    1.341   .     S
C661   H662    0.928   .     S
C661   C663    1.412   .     S
C663   C664    1.371   .     S
C663   C311    1.466   1_545 S
C664   H665    0.929   .     S
C664   C666    1.413   .     S
C666   H667    0.929   .     S
H668   C916    0.960   .     S
W669   O919    2.419   .     S
W669   O670    1.902   .     S
W669   O920    1.892   .     S
W669   O994    1.881   .     S
W669   O671    1.867   .     S
W669   O672    1.657   .     S
O670   W967    1.890   .     S
O671   W943    1.915   .     S
O673   Cu775   2.068   .     S
O673   N674    1.330   .     S
N674   C675    1.330   .     S
N674   C682    1.349   .     S
C675   H676    0.931   .     S
C675   C677    1.341   .     S
C677   H678    0.928   .     S
C677   C679    1.412   .     S
C679   C680    1.371   .     S
C680   H681    0.929   .     S
C680   C682    1.413   .     S
C682   H683    0.929   .     S
H684   C898    0.960   .     S
W685   O901    2.419   .     S
W685   O686    1.902   .     S
W685   O902    1.892   .     S
W685   O991    1.881   .     S
W685   O687    1.867   .     S
W685   O688    1.657   .     S
O686   W965    1.890   .     S
O687   W937    1.915   .     S
O689   Cu771   2.068   .     S
O689   N690    1.330   .     S
N690   C691    1.330   .     S
N690   C698    1.349   .     S
C691   H692    0.931   .     S
C691   C693    1.341   .     S
C693   H694    0.928   .     S
C693   C695    1.412   .     S
C695   C696    1.371   .     S
C695   C279    1.466   1_545 S
C696   H697    0.929   .     S
C696   C698    1.413   .     S
C698   H699    0.929   .     S
H700   C904    0.960   .     S
W701   O907    2.419   .     S
W701   O702    1.902   .     S
W701   O908    1.892   .     S
W701   O992    1.881   .     S
W701   O703    1.867   .     S
W701   O704    1.657   .     S
O702   W967    1.890   .     S
O703   W939    1.915   .     S
O705   Cu776   2.068   .     S
O705   N706    1.330   .     S
N706   C707    1.330   .     S
N706   C714    1.349   .     S
C707   H708    0.931   .     S
C707   C709    1.341   .     S
C709   H710    0.928   .     S
C709   C711    1.412   .     S
C711   C712    1.371   .     S
C712   H713    0.929   .     S
C712   C714    1.413   .     S
C714   H715    0.929   .     S
H716   C886    0.960   .     S
W717   O889    2.419   .     S
W717   O718    1.902   .     S
W717   O890    1.892   .     S
W717   O997    1.881   .     S
W717   O719    1.867   .     S
W717   O720    1.657   .     S
O718   W961    1.890   .     S
O719   W937    1.915   .     S
O721   Cu772   2.068   .     S
O721   N722    1.330   .     S
N722   C723    1.330   .     S
N722   C730    1.349   .     S
C723   H724    0.931   .     S
C723   C725    1.341   .     S
C725   H726    0.928   .     S
C725   C727    1.412   .     S
C727   C728    1.371   .     S
C727   C375    1.466   1_565 S
C728   H729    0.929   .     S
C728   C730    1.413   .     S
C730   H731    0.929   .     S
H732   C892    0.960   .     S
W733   O895    2.419   .     S
W733   O734    1.902   .     S
W733   O896    1.892   .     S
W733   O998    1.881   .     S
W733   O735    1.867   .     S
W733   O736    1.657   .     S
O734   W963    1.890   .     S
O735   W939    1.915   .     S
O737   Cu774   2.068   .     S
O737   N738    1.330   .     S
N738   C739    1.330   .     S
N738   C746    1.349   .     S
C739   H740    0.931   .     S
C739   C741    1.341   .     S
C741   H742    0.928   .     S
C741   C743    1.412   .     S
C743   C744    1.371   .     S
C744   H745    0.929   .     S
C744   C746    1.413   .     S
C746   H747    0.929   .     S
H748   C874    0.960   .     S
W749   O877    2.419   .     S
W749   O750    1.902   .     S
W749   O878    1.892   .     S
W749   O995    1.881   .     S
W749   O751    1.867   .     S
W749   O752    1.657   .     S
O750   W961    1.890   .     S
O751   W941    1.915   .     S
O753   Cu770   2.068   .     S
O753   N754    1.330   .     S
N754   C755    1.330   .     S
N754   C762    1.349   .     S
C755   H756    0.931   .     S
C755   C757    1.341   .     S
C757   H758    0.928   .     S
C757   C759    1.412   .     S
C759   C760    1.371   .     S
C759   C343    1.466   1_565 S
C760   H761    0.929   .     S
C760   C762    1.413   .     S
C762   H763    0.929   .     S
H764   C880    0.960   .     S
W765   O883    2.419   .     S
W765   O766    1.902   .     S
W765   O884    1.892   .     S
W765   O996    1.881   .     S
W765   O767    1.867   .     S
W765   O768    1.657   .     S
O766   W963    1.890   .     S
O767   W943    1.915   .     S
N777   C780    1.139   .     S
C778   H779    0.959   .     S
C778   C780    1.422   .     S
O781   W945    2.513   .     S
O781   P969    1.568   .     S
N783   C786    1.139   .     S
C784   H785    0.959   .     S
C784   C786    1.422   .     S
O787   W947    2.513   .     S
O787   P970    1.568   .     S
N789   C792    1.139   .     S
C790   H791    0.959   .     S
C790   C792    1.422   .     S
O793   W945    2.513   .     S
O793   P969    1.568   .     S
N795   C798    1.139   .     S
C796   H797    0.959   .     S
C796   C798    1.422   .     S
O799   W947    2.513   .     S
O799   P970    1.568   .     S
N801   C804    1.139   .     S
C802   H803    0.959   .     S
C802   C804    1.422   .     S
O805   W949    2.513   .     S
O805   P969    1.568   .     S
N807   C810    1.139   .     S
C808   H809    0.959   .     S
C808   C810    1.422   .     S
O811   W951    2.513   .     S
O811   P970    1.568   .     S
N813   C816    1.139   .     S
C814   H815    0.959   .     S
C814   C816    1.422   .     S
O817   W949    2.513   .     S
O817   P969    1.568   .     S
N819   C822    1.139   .     S
C820   H821    0.959   .     S
C820   C822    1.422   .     S
O823   W951    2.513   .     S
O823   P970    1.568   .     S
N825   C828    1.139   .     S
C826   H827    0.959   .     S
C826   C828    1.422   .     S
O829   W953    2.513   .     S
O829   P971    1.568   .     S
N831   C834    1.139   .     S
C832   H833    0.959   .     S
C832   C834    1.422   .     S
O835   W955    2.513   .     S
O835   P972    1.568   .     S
N837   C840    1.139   .     S
C838   H839    0.959   .     S
C838   C840    1.422   .     S
O841   W953    2.513   .     S
O841   P971    1.568   .     S
N843   C846    1.139   .     S
C844   H845    0.959   .     S
C844   C846    1.422   .     S
O847   W955    2.513   .     S
O847   P972    1.568   .     S
N849   C852    1.139   .     S
C850   H851    0.959   .     S
C850   C852    1.422   .     S
O853   W957    2.513   .     S
O853   P971    1.568   .     S
N855   C858    1.139   .     S
C856   H857    0.959   .     S
C856   C858    1.422   .     S
O859   W959    2.513   .     S
O859   P972    1.568   .     S
N861   C864    1.139   .     S
C862   H863    0.959   .     S
C862   C864    1.422   .     S
O865   W957    2.513   .     S
O865   P971    1.568   .     S
N867   C870    1.139   .     S
C868   H869    0.959   .     S
C868   C870    1.422   .     S
O871   W959    2.513   .     S
O871   P972    1.568   .     S
N873   C876    1.139   .     S
C874   H875    0.959   .     S
C874   C876    1.422   .     S
O877   W961    2.513   .     S
O877   P973    1.568   .     S
N879   C882    1.139   .     S
C880   H881    0.959   .     S
C880   C882    1.422   .     S
O883   W963    2.513   .     S
O883   P974    1.568   .     S
N885   C888    1.139   .     S
C886   H887    0.959   .     S
C886   C888    1.422   .     S
O889   W961    2.513   .     S
O889   P973    1.568   .     S
N891   C894    1.139   .     S
C892   H893    0.959   .     S
C892   C894    1.422   .     S
O895   W963    2.513   .     S
O895   P974    1.568   .     S
N897   C900    1.139   .     S
C898   H899    0.959   .     S
C898   C900    1.422   .     S
O901   W965    2.513   .     S
O901   P973    1.568   .     S
N903   C906    1.139   .     S
C904   H905    0.959   .     S
C904   C906    1.422   .     S
O907   W967    2.513   .     S
O907   P974    1.568   .     S
N909   C912    1.139   .     S
C910   H911    0.959   .     S
C910   C912    1.422   .     S
O913   W965    2.513   .     S
O913   P973    1.568   .     S
N915   C918    1.139   .     S
C916   H917    0.959   .     S
C916   C918    1.422   .     S
O919   W967    2.513   .     S
O919   P974    1.568   .     S
W921   O922    1.644   .     S
W923   O924    1.644   .     S
W925   O926    1.644   .     S
W927   O928    1.644   .     S
W929   O930    1.644   .     S
W931   O932    1.644   .     S
W933   O934    1.644   .     S
W935   O936    1.644   .     S
W937   O938    1.644   .     S
W939   O940    1.644   .     S
W941   O942    1.644   .     S
W943   O944    1.644   .     S
W945   O946    1.680   .     S
W947   O948    1.680   .     S
W949   O950    1.680   .     S
W951   O952    1.680   .     S
W953   O954    1.680   .     S
W955   O956    1.680   .     S
W957   O958    1.680   .     S
W959   O960    1.680   .     S
W961   O962    1.680   .     S
W963   O964    1.680   .     S
W965   O966    1.680   .     S
W967   O968    1.680   .     S
