data_SAHDEO_FSR
_audit_creation_date              2024-06-11
_audit_creation_method            'Materials Studio'
_symmetry_space_group_name_H-M    'P1'
_symmetry_Int_Tables_number       1
_symmetry_cell_setting            triclinic
loop_
_symmetry_equiv_pos_as_xyz
  x,y,z
_cell_length_a                    32.7270
_cell_length_b                    19.1590
_cell_length_c                    25.2970
_cell_angle_alpha                 90.0000
_cell_angle_beta                  90.0000
_cell_angle_gamma                 90.0000
loop_
_atom_site_label
_atom_site_type_symbol
_atom_site_fract_x
_atom_site_fract_y
_atom_site_fract_z
_atom_site_U_iso_or_equiv
_atom_site_adp_type
_atom_site_occupancy
Zn1    Zn    0.98593   0.87807   0.25490   0.00000  Uiso   1.00
Zn2    Zn    0.73146   0.81623   0.26433   0.00000  Uiso   1.00
Zn3    Zn    0.73281   0.68981   0.39532   0.00000  Uiso   1.00
Ni4    Ni    0.87633   0.50624   0.09773   0.00000  Uiso   1.00
Ni5    Ni    0.98247   0.33192   0.35117   0.00000  Uiso   1.00
Ni6    Ni    0.75229   0.74295   0.83093   0.00000  Uiso   1.00
P7     P     0.02388   0.73615   0.29716   0.00000  Uiso   1.00
P8     P     0.69229   0.66911   0.28151   0.00000  Uiso   1.00
P9     P     0.72407   0.33448   0.87465   0.00000  Uiso   1.00
P10    P     0.05260   0.27040   0.95600   0.00000  Uiso   1.00
P11    P     0.81565   0.60917   0.40228   0.00000  Uiso   1.00
P12    P     0.91335   0.10110   0.09142   0.00000  Uiso   1.00
P13    P     0.14838   0.60650   0.26160   0.00000  Uiso   1.00
P14    P     0.01439   0.11260   0.62840   0.00000  Uiso   1.00
P15    P     0.71317   0.63590   0.51238   0.00000  Uiso   1.00
P16    P     0.92972   0.04960   0.76850   0.00000  Uiso   1.00
P17    P     0.74355   0.86230   0.14443   0.00000  Uiso   1.00
P18    P     0.58628   0.41770   0.84130   0.00000  Uiso   1.00
O19    O     0.99610   0.78040   0.26400   0.00000  Uiso   1.00
O20    O     0.02400   0.75480   0.35600   0.00000  Uiso   1.00
H21    H     0.99880   0.75570   0.36620   0.00000  Uiso   1.00
O22    O     0.06760   0.73760   0.28250   0.00000  Uiso   1.00
O23    O     0.71840   0.72030   0.25100   0.00000  Uiso   1.00
O24    O     0.69090   0.68460   0.34120   0.00000  Uiso   1.00
O25    O     0.64930   0.66730   0.26120   0.00000  Uiso   1.00
O26    O     0.72630   0.32430   0.81670   0.00000  Uiso   1.00
O27    O     0.74910   0.28410   0.90830   0.00000  Uiso   1.00
O28    O     0.67840   0.33200   0.89190   0.00000  Uiso   1.00
O29    O     0.04930   0.23030   0.90630   0.00000  Uiso   1.00
O30    O     0.03030   0.22260   0.00050   0.00000  Uiso   1.00
H31    H     0.04810   0.19290   0.01200   0.00000  Uiso   1.00
O32    O     0.09720   0.27200   0.96950   0.00000  Uiso   1.00
O33    O     0.77770   0.63220   0.37490   0.00000  Uiso   1.00
O34    O     0.85430   0.62750   0.37600   0.00000  Uiso   1.00
O35    O     0.81660   0.63700   0.45930   0.00000  Uiso   1.00
O36    O     0.86900   0.07920   0.10420   0.00000  Uiso   1.00
H37    H     0.85510   0.07980   0.07440   0.00000  Uiso   1.00
O38    O     0.92200   0.09420   0.03440   0.00000  Uiso   1.00
O39    O     0.94150   0.05730   0.12670   0.00000  Uiso   1.00
O40    O     0.14550   0.62400   0.20630   0.00000  Uiso   1.00
O41    O     0.18470   0.63500   0.29040   0.00000  Uiso   1.00
O42    O     0.10810   0.62810   0.28920   0.00000  Uiso   1.00
H43    H     0.09400   0.65190   0.26380   0.00000  Uiso   1.00
O44    O     0.03470   0.05950   0.59210   0.00000  Uiso   1.00
H45    H     0.04320   0.02590   0.61150   0.00000  Uiso   1.00
O46    O     0.03060   0.10650   0.68330   0.00000  Uiso   1.00
O47    O     0.96830   0.10980   0.62630   0.00000  Uiso   1.00
H48    H     0.96000   0.07500   0.64350   0.00000  Uiso   1.00
O49    O     0.70270   0.65810   0.45750   0.00000  Uiso   1.00
O50    O     0.75660   0.60790   0.51760   0.00000  Uiso   1.00
H51    H     0.77250   0.62830   0.49470   0.00000  Uiso   1.00
O52    O     0.68360   0.58060   0.53360   0.00000  Uiso   1.00
O53    O     0.97060   0.07200   0.77790   0.00000  Uiso   1.00
O54    O     0.89580   0.08330   0.80700   0.00000  Uiso   1.00
H55    H     0.87850   0.10480   0.78840   0.00000  Uiso   1.00
O56    O     0.92190   0.06690   0.70880   0.00000  Uiso   1.00
O57    O     0.75940   0.92850   0.12020   0.00000  Uiso   1.00
O58    O     0.75450   0.85520   0.20160   0.00000  Uiso   1.00
O59    O     0.69710   0.85830   0.13490   0.00000  Uiso   1.00
H60    H     0.68480   0.86090   0.16400   0.00000  Uiso   1.00
O61    O     0.63070   0.39480   0.82950   0.00000  Uiso   1.00
H62    H     0.64020   0.37710   0.85890   0.00000  Uiso   1.00
O63    O     0.56770   0.38600   0.88990   0.00000  Uiso   1.00
H64    H     0.56640   0.34250   0.88630   0.00000  Uiso   1.00
O65    O     0.56060   0.41260   0.79080   0.00000  Uiso   1.00
N66    N     0.93490   0.50640   0.10580   0.00000  Uiso   1.00
N67    N     0.87130   0.51890   0.17310   0.00000  Uiso   1.00
N68    N     0.81670   0.50820   0.09030   0.00000  Uiso   1.00
N69    N     0.88290   0.49160   0.02220   0.00000  Uiso   1.00
N70    N     0.95630   0.32950   0.41810   0.00000  Uiso   1.00
N71    N     0.93050   0.33230   0.31750   0.00000  Uiso   1.00
N72    N     0.00790   0.33270   0.28450   0.00000  Uiso   1.00
N73    N     0.03330   0.33470   0.38530   0.00000  Uiso   1.00
N74    N     0.70850   0.70960   0.78670   0.00000  Uiso   1.00
N75    N     0.78040   0.78060   0.76910   0.00000  Uiso   1.00
N76    N     0.79820   0.77240   0.87620   0.00000  Uiso   1.00
N77    N     0.72380   0.70970   0.89280   0.00000  Uiso   1.00
C78    C     0.96360   0.48580   0.06900   0.00000  Uiso   1.00
C79    C     0.00450   0.48890   0.08950   0.00000  Uiso   1.00
H80    H     0.02900   0.47590   0.07200   0.00000  Uiso   1.00
C81    C     0.00050   0.51500   0.14070   0.00000  Uiso   1.00
H82    H     0.02200   0.52540   0.16470   0.00000  Uiso   1.00
C83    C     0.95800   0.52300   0.15010   0.00000  Uiso   1.00
C84    C     0.94230   0.53900   0.19830   0.00000  Uiso   1.00
C85    C     0.97010   0.55910   0.24240   0.00000  Uiso   1.00
C86    C     0.98170   0.62780   0.24900   0.00000  Uiso   1.00
H87    H     0.97290   0.66230   0.22450   0.00000  Uiso   1.00
C88    C     0.00600   0.64610   0.29100   0.00000  Uiso   1.00
C89    C     0.01760   0.59550   0.32650   0.00000  Uiso   1.00
H90    H     0.03390   0.60870   0.35590   0.00000  Uiso   1.00
C91    C     0.00700   0.52850   0.32140   0.00000  Uiso   1.00
H92    H     0.01610   0.49510   0.34640   0.00000  Uiso   1.00
C93    C     0.98330   0.50840   0.28060   0.00000  Uiso   1.00
H94    H     0.97530   0.46090   0.27710   0.00000  Uiso   1.00
C95    C     0.90020   0.53410   0.20970   0.00000  Uiso   1.00
C96    C     0.88340   0.54120   0.26170   0.00000  Uiso   1.00
H97    H     0.89810   0.55210   0.29300   0.00000  Uiso   1.00
C98    C     0.84400   0.53000   0.25820   0.00000  Uiso   1.00
H99    H     0.82500   0.53060   0.28670   0.00000  Uiso   1.00
C100   C     0.83420   0.51640   0.20250   0.00000  Uiso   1.00
C101   C     0.79600   0.50980   0.18230   0.00000  Uiso   1.00
C102   C     0.76250   0.51290   0.22260   0.00000  Uiso   1.00
C103   C     0.74230   0.57550   0.22990   0.00000  Uiso   1.00
H104   H     0.74730   0.61310   0.20630   0.00000  Uiso   1.00
C105   C     0.71500   0.58420   0.27110   0.00000  Uiso   1.00
C106   C     0.70730   0.52940   0.30560   0.00000  Uiso   1.00
H107   H     0.68880   0.53560   0.33410   0.00000  Uiso   1.00
C108   C     0.72660   0.46520   0.29860   0.00000  Uiso   1.00
H109   H     0.72090   0.42750   0.32180   0.00000  Uiso   1.00
C110   C     0.75460   0.45690   0.25690   0.00000  Uiso   1.00
H111   H     0.76810   0.41350   0.25200   0.00000  Uiso   1.00
C112   C     0.78920   0.50820   0.12920   0.00000  Uiso   1.00
C113   C     0.74770   0.50820   0.10590   0.00000  Uiso   1.00
H114   H     0.72270   0.50680   0.12500   0.00000  Uiso   1.00
C115   C     0.75150   0.51060   0.05460   0.00000  Uiso   1.00
H116   H     0.72990   0.51280   0.02960   0.00000  Uiso   1.00
C117   C     0.79460   0.50930   0.04280   0.00000  Uiso   1.00
C118   C     0.81050   0.50270   0.99230   0.00000  Uiso   1.00
C119   C     0.78290   0.49540   0.94690   0.00000  Uiso   1.00
C120   C     0.76850   0.43120   0.93570   0.00000  Uiso   1.00
H121   H     0.77500   0.39320   0.95830   0.00000  Uiso   1.00
C122   C     0.74260   0.41940   0.88880   0.00000  Uiso   1.00
C123   C     0.73310   0.47590   0.85910   0.00000  Uiso   1.00
H124   H     0.71470   0.47030   0.83030   0.00000  Uiso   1.00
C125   C     0.74890   0.54110   0.86880   0.00000  Uiso   1.00
H126   H     0.74260   0.57870   0.84590   0.00000  Uiso   1.00
C127   C     0.77440   0.55220   0.91260   0.00000  Uiso   1.00
H128   H     0.78580   0.59690   0.91910   0.00000  Uiso   1.00
C129   C     0.85180   0.49310   0.98400   0.00000  Uiso   1.00
C130   C     0.86990   0.47790   0.93350   0.00000  Uiso   1.00
H131   H     0.85580   0.47610   0.90070   0.00000  Uiso   1.00
C132   C     0.90880   0.46690   0.94020   0.00000  Uiso   1.00
H133   H     0.92810   0.45610   0.91330   0.00000  Uiso   1.00
C134   C     0.91730   0.47410   0.99580   0.00000  Uiso   1.00
C135   C     0.95540   0.47000   0.01630   0.00000  Uiso   1.00
C136   C     0.99050   0.44710   0.98300   0.00000  Uiso   1.00
C137   C     0.00100   0.38100   0.98350   0.00000  Uiso   1.00
H138   H     0.98520   0.34890   0.00350   0.00000  Uiso   1.00
C139   C     0.03700   0.35530   0.95370   0.00000  Uiso   1.00
C140   C     0.05680   0.40220   0.92750   0.00000  Uiso   1.00
H141   H     0.08080   0.38750   0.90970   0.00000  Uiso   1.00
C142   C     0.04560   0.47640   0.92260   0.00000  Uiso   1.00
H143   H     0.05910   0.50880   0.90020   0.00000  Uiso   1.00
C144   C     0.01270   0.49290   0.95530   0.00000  Uiso   1.00
H145   H     0.00540   0.54070   0.95800   0.00000  Uiso   1.00
C146   C     0.97270   0.31160   0.46650   0.00000  Uiso   1.00
C147   C     0.94380   0.31990   0.50750   0.00000  Uiso   1.00
H148   H     0.94740   0.30930   0.54390   0.00000  Uiso   1.00
C149   C     0.91000   0.34610   0.48460   0.00000  Uiso   1.00
H150   H     0.88590   0.35990   0.50270   0.00000  Uiso   1.00
C151   C     0.91610   0.34980   0.42990   0.00000  Uiso   1.00
C152   C     0.88770   0.36890   0.39140   0.00000  Uiso   1.00
C153   C     0.85010   0.40520   0.40630   0.00000  Uiso   1.00
C154   C     0.84960   0.47670   0.39930   0.00000  Uiso   1.00
H155   H     0.87370   0.49990   0.38770   0.00000  Uiso   1.00
C156   C     0.81360   0.51600   0.40900   0.00000  Uiso   1.00
C157   C     0.77900   0.48210   0.42700   0.00000  Uiso   1.00
H158   H     0.75490   0.50780   0.43480   0.00000  Uiso   1.00
C159   C     0.77980   0.41000   0.43350   0.00000  Uiso   1.00
H160   H     0.75580   0.38680   0.44520   0.00000  Uiso   1.00
C161   C     0.81420   0.37130   0.42330   0.00000  Uiso   1.00
H162   H     0.81380   0.32210   0.42780   0.00000  Uiso   1.00
C163   C     0.89340   0.35440   0.33930   0.00000  Uiso   1.00
C164   C     0.86290   0.35220   0.29950   0.00000  Uiso   1.00
H165   H     0.83540   0.36690   0.30430   0.00000  Uiso   1.00
C166   C     0.87760   0.32740   0.25510   0.00000  Uiso   1.00
H167   H     0.86310   0.31830   0.22330   0.00000  Uiso   1.00
C168   C     0.92200   0.31630   0.26540   0.00000  Uiso   1.00
C169   C     0.95080   0.30150   0.22710   0.00000  Uiso   1.00
C170   C     0.93700   0.28210   0.17350   0.00000  Uiso   1.00
C171   C     0.93380   0.21000   0.16020   0.00000  Uiso   1.00
H172   H     0.94100   0.17500   0.18510   0.00000  Uiso   1.00
C173   C     0.91950   0.19160   0.10880   0.00000  Uiso   1.00
C174   C     0.90870   0.24270   0.07550   0.00000  Uiso   1.00
H175   H     0.89860   0.22980   0.04160   0.00000  Uiso   1.00
C176   C     0.91130   0.31100   0.08690   0.00000  Uiso   1.00
H177   H     0.90330   0.34510   0.06170   0.00000  Uiso   1.00
C178   C     0.92590   0.33090   0.13610   0.00000  Uiso   1.00
H179   H     0.92840   0.37920   0.14420   0.00000  Uiso   1.00
C180   C     0.99140   0.31390   0.23440   0.00000  Uiso   1.00
C181   C     0.02150   0.32300   0.19360   0.00000  Uiso   1.00
H182   H     0.01870   0.31280   0.15710   0.00000  Uiso   1.00
C183   C     0.05570   0.35010   0.21920   0.00000  Uiso   1.00
H184   H     0.08070   0.36260   0.20260   0.00000  Uiso   1.00
C185   C     0.04750   0.35580   0.27280   0.00000  Uiso   1.00
C186   C     0.07760   0.37350   0.30800   0.00000  Uiso   1.00
C187   C     0.11490   0.40640   0.29240   0.00000  Uiso   1.00
C188   C     0.11370   0.47810   0.28380   0.00000  Uiso   1.00
H189   H     0.08890   0.50300   0.28830   0.00000  Uiso   1.00
C190   C     0.14930   0.51330   0.26840   0.00000  Uiso   1.00
C191   C     0.18490   0.47710   0.25860   0.00000  Uiso   1.00
H192   H     0.20890   0.50170   0.24850   0.00000  Uiso   1.00
C193   C     0.18600   0.40570   0.26330   0.00000  Uiso   1.00
H194   H     0.21000   0.38040   0.25420   0.00000  Uiso   1.00
C195   C     0.15060   0.37010   0.28220   0.00000  Uiso   1.00
H196   H     0.15150   0.32110   0.28770   0.00000  Uiso   1.00
C197   C     0.07110   0.35910   0.36370   0.00000  Uiso   1.00
C198   C     0.10250   0.35270   0.40270   0.00000  Uiso   1.00
H199   H     0.13060   0.36360   0.39830   0.00000  Uiso   1.00
C200   C     0.08540   0.32920   0.44490   0.00000  Uiso   1.00
H201   H     0.09930   0.32070   0.47730   0.00000  Uiso   1.00
C202   C     0.04360   0.31780   0.43690   0.00000  Uiso   1.00
C203   C     0.01380   0.30250   0.47490   0.00000  Uiso   1.00
C204   C     0.02860   0.28030   0.52880   0.00000  Uiso   1.00
C205   C     0.01710   0.21560   0.55220   0.00000  Uiso   1.00
H206   H     0.00040   0.18510   0.53210   0.00000  Uiso   1.00
C207   C     0.02880   0.19400   0.60230   0.00000  Uiso   1.00
C208   C     0.05190   0.24100   0.63020   0.00000  Uiso   1.00
H209   H     0.06030   0.22880   0.66500   0.00000  Uiso   1.00
C210   C     0.06410   0.30730   0.60970   0.00000  Uiso   1.00
H211   H     0.08090   0.33720   0.63030   0.00000  Uiso   1.00
C212   C     0.05180   0.32740   0.56120   0.00000  Uiso   1.00
H213   H     0.05840   0.37270   0.54840   0.00000  Uiso   1.00
C214   C     0.67350   0.67260   0.80120   0.00000  Uiso   1.00
C215   C     0.64870   0.65750   0.75580   0.00000  Uiso   1.00
H216   H     0.62350   0.63310   0.75630   0.00000  Uiso   1.00
C217   C     0.66750   0.68390   0.71200   0.00000  Uiso   1.00
H218   H     0.65840   0.68150   0.67630   0.00000  Uiso   1.00
C219   C     0.70370   0.71600   0.73190   0.00000  Uiso   1.00
C220   C     0.73190   0.75390   0.69920   0.00000  Uiso   1.00
C221   C     0.71860   0.76050   0.64260   0.00000  Uiso   1.00
C222   C     0.72000   0.70470   0.60850   0.00000  Uiso   1.00
H223   H     0.72790   0.66050   0.62210   0.00000  Uiso   1.00
C224   C     0.71040   0.70980   0.55470   0.00000  Uiso   1.00
C225   C     0.69840   0.77550   0.53720   0.00000  Uiso   1.00
H226   H     0.69270   0.78170   0.50070   0.00000  Uiso   1.00
C227   C     0.69450   0.83210   0.57050   0.00000  Uiso   1.00
H228   H     0.68440   0.87560   0.55790   0.00000  Uiso   1.00
C229   C     0.70560   0.82370   0.62170   0.00000  Uiso   1.00
H230   H     0.70430   0.86310   0.64450   0.00000  Uiso   1.00
C231   C     0.76540   0.78320   0.71680   0.00000  Uiso   1.00
C232   C     0.79520   0.81440   0.68260   0.00000  Uiso   1.00
H233   H     0.79270   0.82230   0.64570   0.00000  Uiso   1.00
C234   C     0.82930   0.83110   0.71500   0.00000  Uiso   1.00
H235   H     0.85430   0.85140   0.70380   0.00000  Uiso   1.00
C236   C     0.81870   0.81190   0.76610   0.00000  Uiso   1.00
C237   C     0.84380   0.82150   0.80860   0.00000  Uiso   1.00
C238   C     0.88570   0.85620   0.80050   0.00000  Uiso   1.00
C239   C     0.89070   0.92440   0.79440   0.00000  Uiso   1.00
H240   H     0.86720   0.95310   0.79860   0.00000  Uiso   1.00
C241   C     0.92540   0.95560   0.78300   0.00000  Uiso   1.00
C242   C     0.96360   0.91830   0.78530   0.00000  Uiso   1.00
H243   H     0.98960   0.94020   0.78480   0.00000  Uiso   1.00
C244   C     0.95760   0.84450   0.78850   0.00000  Uiso   1.00
H245   H     0.98010   0.81440   0.78180   0.00000  Uiso   1.00
C246   C     0.92190   0.81710   0.80030   0.00000  Uiso   1.00
H247   H     0.92060   0.76900   0.80910   0.00000  Uiso   1.00
C248   C     0.83390   0.80230   0.85960   0.00000  Uiso   1.00
C249   C     0.85900   0.81650   0.90540   0.00000  Uiso   1.00
H250   H     0.88530   0.83740   0.90550   0.00000  Uiso   1.00
C251   C     0.83880   0.79540   0.94630   0.00000  Uiso   1.00
H252   H     0.84810   0.79800   0.98180   0.00000  Uiso   1.00
C253   C     0.80000   0.76750   0.92980   0.00000  Uiso   1.00
C254   C     0.77130   0.73950   0.96390   0.00000  Uiso   1.00
C255   C     0.77860   0.74080   0.02100   0.00000  Uiso   1.00
C256   C     0.76090   0.79000   0.05170   0.00000  Uiso   1.00
H257   H     0.74530   0.82540   0.03490   0.00000  Uiso   1.00
C258   C     0.76440   0.79170   0.10750   0.00000  Uiso   1.00
C259   C     0.78620   0.73870   0.13120   0.00000  Uiso   1.00
H260   H     0.78700   0.73630   0.16870   0.00000  Uiso   1.00
C261   C     0.80770   0.68740   0.10100   0.00000  Uiso   1.00
H262   H     0.82420   0.65290   0.11750   0.00000  Uiso   1.00
C263   C     0.80320   0.69030   0.04610   0.00000  Uiso   1.00
H264   H     0.81710   0.65700   0.02500   0.00000  Uiso   1.00
C265   C     0.73600   0.71200   0.94440   0.00000  Uiso   1.00
C266   C     0.70530   0.68190   0.97870   0.00000  Uiso   1.00
H267   H     0.70670   0.67870   0.01610   0.00000  Uiso   1.00
C268   C     0.67480   0.65990   0.94860   0.00000  Uiso   1.00
H269   H     0.65040   0.63820   0.96030   0.00000  Uiso   1.00
C270   C     0.68590   0.67500   0.89500   0.00000  Uiso   1.00
C271   C     0.66110   0.65850   0.85310   0.00000  Uiso   1.00
C272   C     0.62330   0.62020   0.85970   0.00000  Uiso   1.00
C273   C     0.62070   0.54910   0.85330   0.00000  Uiso   1.00
H274   H     0.64570   0.52510   0.84710   0.00000  Uiso   1.00
C275   C     0.58760   0.51070   0.85480   0.00000  Uiso   1.00
C276   C     0.55340   0.54680   0.87400   0.00000  Uiso   1.00
H277   H     0.52890   0.52120   0.87910   0.00000  Uiso   1.00
C278   C     0.55310   0.61820   0.88610   0.00000  Uiso   1.00
H279   H     0.52980   0.64060   0.90050   0.00000  Uiso   1.00
C280   C     0.58860   0.65370   0.87590   0.00000  Uiso   1.00
H281   H     0.58910   0.70300   0.88010   0.00000  Uiso   1.00
Zn282  Zn    0.01407   0.12193   0.75490   0.00000  Uiso   1.00
Zn283  Zn    0.26854   0.18377   0.76433   0.00000  Uiso   1.00
Zn284  Zn    0.26719   0.31019   0.89532   0.00000  Uiso   1.00
Ni285  Ni    0.12367   0.49376   0.59773   0.00000  Uiso   1.00
Ni286  Ni    0.01753   0.66808   0.85117   0.00000  Uiso   1.00
Ni287  Ni    0.24771   0.25705   0.33093   0.00000  Uiso   1.00
P288   P     0.97612   0.26385   0.79716   0.00000  Uiso   1.00
P289   P     0.30771   0.33089   0.78151   0.00000  Uiso   1.00
P290   P     0.27593   0.66552   0.37465   0.00000  Uiso   1.00
P291   P     0.94740   0.72960   0.45600   0.00000  Uiso   1.00
P292   P     0.18435   0.39083   0.90228   0.00000  Uiso   1.00
P293   P     0.08665   0.89890   0.59142   0.00000  Uiso   1.00
P294   P     0.85162   0.39350   0.76160   0.00000  Uiso   1.00
P295   P     0.98561   0.88740   0.12840   0.00000  Uiso   1.00
P296   P     0.28683   0.36410   0.01238   0.00000  Uiso   1.00
P297   P     0.07028   0.95040   0.26850   0.00000  Uiso   1.00
P298   P     0.25645   0.13770   0.64443   0.00000  Uiso   1.00
P299   P     0.41372   0.58230   0.34130   0.00000  Uiso   1.00
O300   O     0.00390   0.21960   0.76400   0.00000  Uiso   1.00
O301   O     0.97600   0.24520   0.85600   0.00000  Uiso   1.00
H302   H     0.00120   0.24430   0.86620   0.00000  Uiso   1.00
O303   O     0.93240   0.26240   0.78250   0.00000  Uiso   1.00
O304   O     0.28160   0.27970   0.75100   0.00000  Uiso   1.00
O305   O     0.30910   0.31540   0.84120   0.00000  Uiso   1.00
O306   O     0.35070   0.33270   0.76120   0.00000  Uiso   1.00
O307   O     0.27370   0.67570   0.31670   0.00000  Uiso   1.00
O308   O     0.25090   0.71590   0.40830   0.00000  Uiso   1.00
O309   O     0.32160   0.66800   0.39190   0.00000  Uiso   1.00
O310   O     0.95070   0.76970   0.40630   0.00000  Uiso   1.00
O311   O     0.96970   0.77740   0.50050   0.00000  Uiso   1.00
H312   H     0.95190   0.80710   0.51200   0.00000  Uiso   1.00
O313   O     0.90280   0.72800   0.46950   0.00000  Uiso   1.00
O314   O     0.22230   0.36780   0.87490   0.00000  Uiso   1.00
O315   O     0.14570   0.37250   0.87600   0.00000  Uiso   1.00
O316   O     0.18340   0.36300   0.95930   0.00000  Uiso   1.00
O317   O     0.13100   0.92080   0.60420   0.00000  Uiso   1.00
H318   H     0.14490   0.92020   0.57440   0.00000  Uiso   1.00
O319   O     0.07800   0.90580   0.53440   0.00000  Uiso   1.00
O320   O     0.05850   0.94270   0.62670   0.00000  Uiso   1.00
O321   O     0.85450   0.37600   0.70630   0.00000  Uiso   1.00
O322   O     0.81530   0.36500   0.79040   0.00000  Uiso   1.00
O323   O     0.89190   0.37190   0.78920   0.00000  Uiso   1.00
H324   H     0.90600   0.34810   0.76380   0.00000  Uiso   1.00
O325   O     0.96530   0.94050   0.09210   0.00000  Uiso   1.00
H326   H     0.95680   0.97410   0.11150   0.00000  Uiso   1.00
O327   O     0.96940   0.89350   0.18330   0.00000  Uiso   1.00
O328   O     0.03170   0.89020   0.12630   0.00000  Uiso   1.00
H329   H     0.04000   0.92500   0.14350   0.00000  Uiso   1.00
O330   O     0.29730   0.34190   0.95750   0.00000  Uiso   1.00
O331   O     0.24340   0.39210   0.01760   0.00000  Uiso   1.00
H332   H     0.22750   0.37170   0.99470   0.00000  Uiso   1.00
O333   O     0.31640   0.41940   0.03360   0.00000  Uiso   1.00
O334   O     0.02940   0.92800   0.27790   0.00000  Uiso   1.00
O335   O     0.10420   0.91670   0.30700   0.00000  Uiso   1.00
H336   H     0.12150   0.89520   0.28840   0.00000  Uiso   1.00
O337   O     0.07810   0.93310   0.20880   0.00000  Uiso   1.00
O338   O     0.24060   0.07150   0.62020   0.00000  Uiso   1.00
O339   O     0.24550   0.14480   0.70160   0.00000  Uiso   1.00
O340   O     0.30290   0.14170   0.63490   0.00000  Uiso   1.00
H341   H     0.31520   0.13910   0.66400   0.00000  Uiso   1.00
O342   O     0.36930   0.60520   0.32950   0.00000  Uiso   1.00
H343   H     0.35980   0.62290   0.35890   0.00000  Uiso   1.00
O344   O     0.43230   0.61400   0.38990   0.00000  Uiso   1.00
H345   H     0.43360   0.65750   0.38630   0.00000  Uiso   1.00
O346   O     0.43940   0.58740   0.29080   0.00000  Uiso   1.00
N347   N     0.06510   0.49360   0.60580   0.00000  Uiso   1.00
N348   N     0.12870   0.48110   0.67310   0.00000  Uiso   1.00
N349   N     0.18330   0.49180   0.59030   0.00000  Uiso   1.00
N350   N     0.11710   0.50840   0.52220   0.00000  Uiso   1.00
N351   N     0.04370   0.67050   0.91810   0.00000  Uiso   1.00
N352   N     0.06950   0.66770   0.81750   0.00000  Uiso   1.00
N353   N     0.99210   0.66730   0.78450   0.00000  Uiso   1.00
N354   N     0.96670   0.66530   0.88530   0.00000  Uiso   1.00
N355   N     0.29150   0.29040   0.28670   0.00000  Uiso   1.00
N356   N     0.21960   0.21940   0.26910   0.00000  Uiso   1.00
N357   N     0.20180   0.22760   0.37620   0.00000  Uiso   1.00
N358   N     0.27620   0.29030   0.39280   0.00000  Uiso   1.00
C359   C     0.03640   0.51420   0.56900   0.00000  Uiso   1.00
C360   C     0.99550   0.51110   0.58950   0.00000  Uiso   1.00
H361   H     0.97100   0.52410   0.57200   0.00000  Uiso   1.00
C362   C     0.99950   0.48500   0.64070   0.00000  Uiso   1.00
H363   H     0.97800   0.47460   0.66470   0.00000  Uiso   1.00
C364   C     0.04200   0.47700   0.65010   0.00000  Uiso   1.00
C365   C     0.05770   0.46100   0.69830   0.00000  Uiso   1.00
C366   C     0.02990   0.44090   0.74240   0.00000  Uiso   1.00
C367   C     0.01830   0.37220   0.74900   0.00000  Uiso   1.00
H368   H     0.02710   0.33770   0.72450   0.00000  Uiso   1.00
C369   C     0.99400   0.35390   0.79100   0.00000  Uiso   1.00
C370   C     0.98240   0.40450   0.82650   0.00000  Uiso   1.00
H371   H     0.96610   0.39130   0.85590   0.00000  Uiso   1.00
C372   C     0.99300   0.47150   0.82140   0.00000  Uiso   1.00
H373   H     0.98390   0.50490   0.84640   0.00000  Uiso   1.00
C374   C     0.01670   0.49160   0.78060   0.00000  Uiso   1.00
H375   H     0.02470   0.53910   0.77710   0.00000  Uiso   1.00
C376   C     0.09980   0.46590   0.70970   0.00000  Uiso   1.00
C377   C     0.11660   0.45880   0.76170   0.00000  Uiso   1.00
H378   H     0.10190   0.44790   0.79300   0.00000  Uiso   1.00
C379   C     0.15600   0.47000   0.75820   0.00000  Uiso   1.00
H380   H     0.17500   0.46940   0.78670   0.00000  Uiso   1.00
C381   C     0.16580   0.48360   0.70250   0.00000  Uiso   1.00
C382   C     0.20400   0.49020   0.68230   0.00000  Uiso   1.00
C383   C     0.23750   0.48710   0.72260   0.00000  Uiso   1.00
C384   C     0.25770   0.42450   0.72990   0.00000  Uiso   1.00
H385   H     0.25270   0.38690   0.70630   0.00000  Uiso   1.00
C386   C     0.28500   0.41580   0.77110   0.00000  Uiso   1.00
C387   C     0.29270   0.47060   0.80560   0.00000  Uiso   1.00
H388   H     0.31120   0.46440   0.83410   0.00000  Uiso   1.00
C389   C     0.27340   0.53480   0.79860   0.00000  Uiso   1.00
H390   H     0.27910   0.57250   0.82180   0.00000  Uiso   1.00
C391   C     0.24540   0.54310   0.75690   0.00000  Uiso   1.00
H392   H     0.23190   0.58650   0.75200   0.00000  Uiso   1.00
C393   C     0.21080   0.49180   0.62920   0.00000  Uiso   1.00
C394   C     0.25230   0.49180   0.60590   0.00000  Uiso   1.00
H395   H     0.27730   0.49320   0.62500   0.00000  Uiso   1.00
C396   C     0.24850   0.48940   0.55460   0.00000  Uiso   1.00
H397   H     0.27010   0.48720   0.52960   0.00000  Uiso   1.00
C398   C     0.20540   0.49070   0.54280   0.00000  Uiso   1.00
C399   C     0.18950   0.49730   0.49230   0.00000  Uiso   1.00
C400   C     0.21710   0.50460   0.44690   0.00000  Uiso   1.00
C401   C     0.23150   0.56880   0.43570   0.00000  Uiso   1.00
H402   H     0.22500   0.60680   0.45830   0.00000  Uiso   1.00
C403   C     0.25740   0.58060   0.38880   0.00000  Uiso   1.00
C404   C     0.26690   0.52410   0.35910   0.00000  Uiso   1.00
H405   H     0.28530   0.52970   0.33030   0.00000  Uiso   1.00
C406   C     0.25110   0.45890   0.36880   0.00000  Uiso   1.00
H407   H     0.25740   0.42130   0.34590   0.00000  Uiso   1.00
C408   C     0.22560   0.44780   0.41260   0.00000  Uiso   1.00
H409   H     0.21420   0.40310   0.41910   0.00000  Uiso   1.00
C410   C     0.14820   0.50690   0.48400   0.00000  Uiso   1.00
C411   C     0.13010   0.52210   0.43350   0.00000  Uiso   1.00
H412   H     0.14420   0.52390   0.40070   0.00000  Uiso   1.00
C413   C     0.09120   0.53310   0.44020   0.00000  Uiso   1.00
H414   H     0.07190   0.54390   0.41330   0.00000  Uiso   1.00
C415   C     0.08270   0.52590   0.49580   0.00000  Uiso   1.00
C416   C     0.04460   0.53000   0.51630   0.00000  Uiso   1.00
C417   C     0.00950   0.55290   0.48300   0.00000  Uiso   1.00
C418   C     0.99900   0.61900   0.48350   0.00000  Uiso   1.00
H419   H     0.01480   0.65110   0.50350   0.00000  Uiso   1.00
C420   C     0.96300   0.64470   0.45370   0.00000  Uiso   1.00
C421   C     0.94320   0.59780   0.42750   0.00000  Uiso   1.00
H422   H     0.91920   0.61250   0.40970   0.00000  Uiso   1.00
C423   C     0.95440   0.52360   0.42260   0.00000  Uiso   1.00
H424   H     0.94090   0.49120   0.40020   0.00000  Uiso   1.00
C425   C     0.98730   0.50710   0.45530   0.00000  Uiso   1.00
H426   H     0.99460   0.45930   0.45800   0.00000  Uiso   1.00
C427   C     0.02730   0.68840   0.96650   0.00000  Uiso   1.00
C428   C     0.05620   0.68010   0.00750   0.00000  Uiso   1.00
H429   H     0.05260   0.69070   0.04390   0.00000  Uiso   1.00
C430   C     0.09000   0.65390   0.98460   0.00000  Uiso   1.00
H431   H     0.11410   0.64010   0.00270   0.00000  Uiso   1.00
C432   C     0.08390   0.65020   0.92990   0.00000  Uiso   1.00
C433   C     0.11230   0.63110   0.89140   0.00000  Uiso   1.00
C434   C     0.14990   0.59480   0.90630   0.00000  Uiso   1.00
C435   C     0.15040   0.52330   0.89930   0.00000  Uiso   1.00
H436   H     0.12630   0.50010   0.88770   0.00000  Uiso   1.00
C437   C     0.18640   0.48400   0.90900   0.00000  Uiso   1.00
C438   C     0.22100   0.51790   0.92700   0.00000  Uiso   1.00
H439   H     0.24510   0.49220   0.93480   0.00000  Uiso   1.00
C440   C     0.22020   0.59000   0.93350   0.00000  Uiso   1.00
H441   H     0.24420   0.61320   0.94520   0.00000  Uiso   1.00
C442   C     0.18580   0.62870   0.92330   0.00000  Uiso   1.00
H443   H     0.18620   0.67790   0.92780   0.00000  Uiso   1.00
C444   C     0.10660   0.64560   0.83930   0.00000  Uiso   1.00
C445   C     0.13710   0.64780   0.79950   0.00000  Uiso   1.00
H446   H     0.16460   0.63310   0.80430   0.00000  Uiso   1.00
C447   C     0.12240   0.67260   0.75510   0.00000  Uiso   1.00
H448   H     0.13690   0.68170   0.72330   0.00000  Uiso   1.00
C449   C     0.07800   0.68370   0.76540   0.00000  Uiso   1.00
C450   C     0.04920   0.69850   0.72710   0.00000  Uiso   1.00
C451   C     0.06300   0.71790   0.67350   0.00000  Uiso   1.00
C452   C     0.06620   0.79000   0.66020   0.00000  Uiso   1.00
H453   H     0.05900   0.82500   0.68510   0.00000  Uiso   1.00
C454   C     0.08050   0.80840   0.60880   0.00000  Uiso   1.00
C455   C     0.09130   0.75730   0.57550   0.00000  Uiso   1.00
H456   H     0.10140   0.77020   0.54160   0.00000  Uiso   1.00
C457   C     0.08870   0.68900   0.58690   0.00000  Uiso   1.00
H458   H     0.09670   0.65490   0.56170   0.00000  Uiso   1.00
C459   C     0.07410   0.66910   0.63610   0.00000  Uiso   1.00
H460   H     0.07160   0.62080   0.64420   0.00000  Uiso   1.00
C461   C     0.00860   0.68610   0.73440   0.00000  Uiso   1.00
C462   C     0.97850   0.67700   0.69360   0.00000  Uiso   1.00
H463   H     0.98130   0.68720   0.65710   0.00000  Uiso   1.00
C464   C     0.94430   0.64990   0.71920   0.00000  Uiso   1.00
H465   H     0.91930   0.63740   0.70260   0.00000  Uiso   1.00
C466   C     0.95250   0.64420   0.77280   0.00000  Uiso   1.00
C467   C     0.92240   0.62650   0.80800   0.00000  Uiso   1.00
C468   C     0.88510   0.59360   0.79240   0.00000  Uiso   1.00
C469   C     0.88630   0.52190   0.78380   0.00000  Uiso   1.00
H470   H     0.91110   0.49700   0.78830   0.00000  Uiso   1.00
C471   C     0.85070   0.48670   0.76840   0.00000  Uiso   1.00
C472   C     0.81510   0.52290   0.75860   0.00000  Uiso   1.00
H473   H     0.79110   0.49830   0.74850   0.00000  Uiso   1.00
C474   C     0.81400   0.59430   0.76330   0.00000  Uiso   1.00
H475   H     0.79000   0.61960   0.75420   0.00000  Uiso   1.00
C476   C     0.84940   0.62990   0.78220   0.00000  Uiso   1.00
H477   H     0.84850   0.67890   0.78770   0.00000  Uiso   1.00
C478   C     0.92890   0.64090   0.86370   0.00000  Uiso   1.00
C479   C     0.89750   0.64730   0.90270   0.00000  Uiso   1.00
H480   H     0.86940   0.63640   0.89830   0.00000  Uiso   1.00
C481   C     0.91460   0.67080   0.94490   0.00000  Uiso   1.00
H482   H     0.90070   0.67930   0.97730   0.00000  Uiso   1.00
C483   C     0.95640   0.68220   0.93690   0.00000  Uiso   1.00
C484   C     0.98620   0.69750   0.97490   0.00000  Uiso   1.00
C485   C     0.97140   0.71970   0.02880   0.00000  Uiso   1.00
C486   C     0.98290   0.78440   0.05220   0.00000  Uiso   1.00
H487   H     0.99960   0.81490   0.03210   0.00000  Uiso   1.00
C488   C     0.97120   0.80600   0.10230   0.00000  Uiso   1.00
C489   C     0.94810   0.75900   0.13020   0.00000  Uiso   1.00
H490   H     0.93970   0.77120   0.16500   0.00000  Uiso   1.00
C491   C     0.93590   0.69270   0.10970   0.00000  Uiso   1.00
H492   H     0.91910   0.66280   0.13030   0.00000  Uiso   1.00
C493   C     0.94820   0.67260   0.06120   0.00000  Uiso   1.00
H494   H     0.94160   0.62730   0.04840   0.00000  Uiso   1.00
C495   C     0.32650   0.32740   0.30120   0.00000  Uiso   1.00
C496   C     0.35130   0.34250   0.25580   0.00000  Uiso   1.00
H497   H     0.37650   0.36690   0.25630   0.00000  Uiso   1.00
C498   C     0.33250   0.31610   0.21200   0.00000  Uiso   1.00
H499   H     0.34160   0.31850   0.17630   0.00000  Uiso   1.00
C500   C     0.29630   0.28400   0.23190   0.00000  Uiso   1.00
C501   C     0.26810   0.24610   0.19920   0.00000  Uiso   1.00
C502   C     0.28140   0.23950   0.14260   0.00000  Uiso   1.00
C503   C     0.28000   0.29530   0.10850   0.00000  Uiso   1.00
H504   H     0.27210   0.33950   0.12210   0.00000  Uiso   1.00
C505   C     0.28960   0.29020   0.05470   0.00000  Uiso   1.00
C506   C     0.30160   0.22450   0.03720   0.00000  Uiso   1.00
H507   H     0.30730   0.21830   0.00070   0.00000  Uiso   1.00
C508   C     0.30550   0.16790   0.07050   0.00000  Uiso   1.00
H509   H     0.31560   0.12440   0.05790   0.00000  Uiso   1.00
C510   C     0.29440   0.17630   0.12170   0.00000  Uiso   1.00
H511   H     0.29570   0.13690   0.14450   0.00000  Uiso   1.00
C512   C     0.23460   0.21680   0.21680   0.00000  Uiso   1.00
C513   C     0.20480   0.18560   0.18260   0.00000  Uiso   1.00
H514   H     0.20730   0.17770   0.14570   0.00000  Uiso   1.00
C515   C     0.17070   0.16890   0.21500   0.00000  Uiso   1.00
H516   H     0.14570   0.14860   0.20380   0.00000  Uiso   1.00
C517   C     0.18130   0.18810   0.26610   0.00000  Uiso   1.00
C518   C     0.15620   0.17850   0.30860   0.00000  Uiso   1.00
C519   C     0.11430   0.14380   0.30050   0.00000  Uiso   1.00
C520   C     0.10930   0.07560   0.29440   0.00000  Uiso   1.00
H521   H     0.13280   0.04690   0.29860   0.00000  Uiso   1.00
C522   C     0.07460   0.04440   0.28300   0.00000  Uiso   1.00
C523   C     0.03640   0.08170   0.28530   0.00000  Uiso   1.00
H524   H     0.01040   0.05980   0.28480   0.00000  Uiso   1.00
C525   C     0.04240   0.15550   0.28850   0.00000  Uiso   1.00
H526   H     0.01990   0.18560   0.28180   0.00000  Uiso   1.00
C527   C     0.07810   0.18290   0.30030   0.00000  Uiso   1.00
H528   H     0.07940   0.23100   0.30910   0.00000  Uiso   1.00
C529   C     0.16610   0.19770   0.35960   0.00000  Uiso   1.00
C530   C     0.14100   0.18350   0.40540   0.00000  Uiso   1.00
H531   H     0.11470   0.16260   0.40550   0.00000  Uiso   1.00
C532   C     0.16120   0.20460   0.44630   0.00000  Uiso   1.00
H533   H     0.15190   0.20200   0.48180   0.00000  Uiso   1.00
C534   C     0.20000   0.23250   0.42980   0.00000  Uiso   1.00
C535   C     0.22870   0.26050   0.46390   0.00000  Uiso   1.00
C536   C     0.22140   0.25920   0.52100   0.00000  Uiso   1.00
C537   C     0.23910   0.21000   0.55170   0.00000  Uiso   1.00
H538   H     0.25470   0.17460   0.53490   0.00000  Uiso   1.00
C539   C     0.23560   0.20830   0.60750   0.00000  Uiso   1.00
C540   C     0.21380   0.26130   0.63120   0.00000  Uiso   1.00
H541   H     0.21300   0.26370   0.66870   0.00000  Uiso   1.00
C542   C     0.19230   0.31260   0.60100   0.00000  Uiso   1.00
H543   H     0.17580   0.34710   0.61750   0.00000  Uiso   1.00
C544   C     0.19680   0.30970   0.54610   0.00000  Uiso   1.00
H545   H     0.18290   0.34300   0.52500   0.00000  Uiso   1.00
C546   C     0.26400   0.28800   0.44440   0.00000  Uiso   1.00
C547   C     0.29470   0.31810   0.47870   0.00000  Uiso   1.00
H548   H     0.29330   0.32130   0.51610   0.00000  Uiso   1.00
C549   C     0.32520   0.34010   0.44860   0.00000  Uiso   1.00
H550   H     0.34960   0.36180   0.46030   0.00000  Uiso   1.00
C551   C     0.31410   0.32500   0.39500   0.00000  Uiso   1.00
C552   C     0.33890   0.34150   0.35310   0.00000  Uiso   1.00
C553   C     0.37670   0.37980   0.35970   0.00000  Uiso   1.00
C554   C     0.37930   0.45090   0.35330   0.00000  Uiso   1.00
H555   H     0.35430   0.47490   0.34710   0.00000  Uiso   1.00
C556   C     0.41240   0.48930   0.35480   0.00000  Uiso   1.00
C557   C     0.44660   0.45320   0.37400   0.00000  Uiso   1.00
H558   H     0.47110   0.47880   0.37910   0.00000  Uiso   1.00
C559   C     0.44690   0.38180   0.38610   0.00000  Uiso   1.00
H560   H     0.47020   0.35940   0.40050   0.00000  Uiso   1.00
C561   C     0.41140   0.34630   0.37590   0.00000  Uiso   1.00
H562   H     0.41090   0.29700   0.38010   0.00000  Uiso   1.00
Zn563  Zn    0.48593   0.62193   0.25490   0.00000  Uiso   1.00
Zn564  Zn    0.23146   0.68377   0.26433   0.00000  Uiso   1.00
Zn565  Zn    0.23281   0.81019   0.39532   0.00000  Uiso   1.00
Ni566  Ni    0.37633   0.99376   0.09773   0.00000  Uiso   1.00
Ni567  Ni    0.48247   0.16808   0.35117   0.00000  Uiso   1.00
Ni568  Ni    0.25229   0.75705   0.83093   0.00000  Uiso   1.00
P569   P     0.52388   0.76385   0.29716   0.00000  Uiso   1.00
P570   P     0.19229   0.83089   0.28151   0.00000  Uiso   1.00
P571   P     0.22407   0.16552   0.87465   0.00000  Uiso   1.00
P572   P     0.55260   0.22960   0.95600   0.00000  Uiso   1.00
P573   P     0.31565   0.89083   0.40228   0.00000  Uiso   1.00
P574   P     0.41335   0.39890   0.09142   0.00000  Uiso   1.00
P575   P     0.64838   0.89350   0.26160   0.00000  Uiso   1.00
P576   P     0.51439   0.38740   0.62840   0.00000  Uiso   1.00
P577   P     0.21317   0.86410   0.51238   0.00000  Uiso   1.00
P578   P     0.42972   0.45040   0.76850   0.00000  Uiso   1.00
P579   P     0.24355   0.63770   0.14443   0.00000  Uiso   1.00
P580   P     0.08628   0.08230   0.84130   0.00000  Uiso   1.00
O581   O     0.49610   0.71960   0.26400   0.00000  Uiso   1.00
O582   O     0.52400   0.74520   0.35600   0.00000  Uiso   1.00
H583   H     0.49880   0.74430   0.36620   0.00000  Uiso   1.00
O584   O     0.56760   0.76240   0.28250   0.00000  Uiso   1.00
O585   O     0.21840   0.77970   0.25100   0.00000  Uiso   1.00
O586   O     0.19090   0.81540   0.34120   0.00000  Uiso   1.00
O587   O     0.14930   0.83270   0.26120   0.00000  Uiso   1.00
O588   O     0.22630   0.17570   0.81670   0.00000  Uiso   1.00
O589   O     0.24910   0.21590   0.90830   0.00000  Uiso   1.00
O590   O     0.17840   0.16800   0.89190   0.00000  Uiso   1.00
O591   O     0.54930   0.26970   0.90630   0.00000  Uiso   1.00
O592   O     0.53030   0.27740   0.00050   0.00000  Uiso   1.00
H593   H     0.54810   0.30710   0.01200   0.00000  Uiso   1.00
O594   O     0.59720   0.22800   0.96950   0.00000  Uiso   1.00
O595   O     0.27770   0.86780   0.37490   0.00000  Uiso   1.00
O596   O     0.35430   0.87250   0.37600   0.00000  Uiso   1.00
O597   O     0.31660   0.86300   0.45930   0.00000  Uiso   1.00
O598   O     0.36900   0.42080   0.10420   0.00000  Uiso   1.00
H599   H     0.35510   0.42020   0.07440   0.00000  Uiso   1.00
O600   O     0.42200   0.40580   0.03440   0.00000  Uiso   1.00
O601   O     0.44150   0.44270   0.12670   0.00000  Uiso   1.00
O602   O     0.64550   0.87600   0.20630   0.00000  Uiso   1.00
O603   O     0.68470   0.86500   0.29040   0.00000  Uiso   1.00
O604   O     0.60810   0.87190   0.28920   0.00000  Uiso   1.00
H605   H     0.59400   0.84810   0.26380   0.00000  Uiso   1.00
O606   O     0.53470   0.44050   0.59210   0.00000  Uiso   1.00
H607   H     0.54320   0.47410   0.61150   0.00000  Uiso   1.00
O608   O     0.53060   0.39350   0.68330   0.00000  Uiso   1.00
O609   O     0.46830   0.39020   0.62630   0.00000  Uiso   1.00
H610   H     0.46000   0.42500   0.64350   0.00000  Uiso   1.00
O611   O     0.20270   0.84190   0.45750   0.00000  Uiso   1.00
O612   O     0.25660   0.89210   0.51760   0.00000  Uiso   1.00
H613   H     0.27250   0.87170   0.49470   0.00000  Uiso   1.00
O614   O     0.18360   0.91940   0.53360   0.00000  Uiso   1.00
O615   O     0.47060   0.42800   0.77790   0.00000  Uiso   1.00
O616   O     0.39580   0.41670   0.80700   0.00000  Uiso   1.00
H617   H     0.37850   0.39520   0.78840   0.00000  Uiso   1.00
O618   O     0.42190   0.43310   0.70880   0.00000  Uiso   1.00
O619   O     0.25940   0.57150   0.12020   0.00000  Uiso   1.00
O620   O     0.25450   0.64480   0.20160   0.00000  Uiso   1.00
O621   O     0.19710   0.64170   0.13490   0.00000  Uiso   1.00
H622   H     0.18480   0.63910   0.16400   0.00000  Uiso   1.00
O623   O     0.13070   0.10520   0.82950   0.00000  Uiso   1.00
H624   H     0.14020   0.12290   0.85890   0.00000  Uiso   1.00
O625   O     0.06770   0.11400   0.88990   0.00000  Uiso   1.00
H626   H     0.06640   0.15750   0.88630   0.00000  Uiso   1.00
O627   O     0.06060   0.08740   0.79080   0.00000  Uiso   1.00
N628   N     0.43490   0.99360   0.10580   0.00000  Uiso   1.00
N629   N     0.37130   0.98110   0.17310   0.00000  Uiso   1.00
N630   N     0.31670   0.99180   0.09030   0.00000  Uiso   1.00
N631   N     0.38290   0.00840   0.02220   0.00000  Uiso   1.00
N632   N     0.45630   0.17050   0.41810   0.00000  Uiso   1.00
N633   N     0.43050   0.16770   0.31750   0.00000  Uiso   1.00
N634   N     0.50790   0.16730   0.28450   0.00000  Uiso   1.00
N635   N     0.53330   0.16530   0.38530   0.00000  Uiso   1.00
N636   N     0.20850   0.79040   0.78670   0.00000  Uiso   1.00
N637   N     0.28040   0.71940   0.76910   0.00000  Uiso   1.00
N638   N     0.29820   0.72760   0.87620   0.00000  Uiso   1.00
N639   N     0.22380   0.79030   0.89280   0.00000  Uiso   1.00
C640   C     0.46360   0.01420   0.06900   0.00000  Uiso   1.00
C641   C     0.50450   0.01110   0.08950   0.00000  Uiso   1.00
H642   H     0.52900   0.02410   0.07200   0.00000  Uiso   1.00
C643   C     0.50050   0.98500   0.14070   0.00000  Uiso   1.00
H644   H     0.52200   0.97460   0.16470   0.00000  Uiso   1.00
C645   C     0.45800   0.97700   0.15010   0.00000  Uiso   1.00
C646   C     0.44230   0.96100   0.19830   0.00000  Uiso   1.00
C647   C     0.47010   0.94090   0.24240   0.00000  Uiso   1.00
C648   C     0.48170   0.87220   0.24900   0.00000  Uiso   1.00
H649   H     0.47290   0.83770   0.22450   0.00000  Uiso   1.00
C650   C     0.50600   0.85390   0.29100   0.00000  Uiso   1.00
C651   C     0.51760   0.90450   0.32650   0.00000  Uiso   1.00
H652   H     0.53390   0.89130   0.35590   0.00000  Uiso   1.00
C653   C     0.50700   0.97150   0.32140   0.00000  Uiso   1.00
H654   H     0.51610   0.00490   0.34640   0.00000  Uiso   1.00
C655   C     0.48330   0.99160   0.28060   0.00000  Uiso   1.00
H656   H     0.47530   0.03910   0.27710   0.00000  Uiso   1.00
C657   C     0.40020   0.96590   0.20970   0.00000  Uiso   1.00
C658   C     0.38340   0.95880   0.26170   0.00000  Uiso   1.00
H659   H     0.39810   0.94790   0.29300   0.00000  Uiso   1.00
C660   C     0.34400   0.97000   0.25820   0.00000  Uiso   1.00
H661   H     0.32500   0.96940   0.28670   0.00000  Uiso   1.00
C662   C     0.33420   0.98360   0.20250   0.00000  Uiso   1.00
C663   C     0.29600   0.99020   0.18230   0.00000  Uiso   1.00
C664   C     0.26250   0.98710   0.22260   0.00000  Uiso   1.00
C665   C     0.24230   0.92450   0.22990   0.00000  Uiso   1.00
H666   H     0.24730   0.88690   0.20630   0.00000  Uiso   1.00
C667   C     0.21500   0.91580   0.27110   0.00000  Uiso   1.00
C668   C     0.20730   0.97060   0.30560   0.00000  Uiso   1.00
H669   H     0.18880   0.96440   0.33410   0.00000  Uiso   1.00
C670   C     0.22660   0.03480   0.29860   0.00000  Uiso   1.00
H671   H     0.22090   0.07250   0.32180   0.00000  Uiso   1.00
C672   C     0.25460   0.04310   0.25690   0.00000  Uiso   1.00
H673   H     0.26810   0.08650   0.25200   0.00000  Uiso   1.00
C674   C     0.28920   0.99180   0.12920   0.00000  Uiso   1.00
C675   C     0.24770   0.99180   0.10590   0.00000  Uiso   1.00
H676   H     0.22270   0.99320   0.12500   0.00000  Uiso   1.00
C677   C     0.25150   0.98940   0.05460   0.00000  Uiso   1.00
H678   H     0.22990   0.98720   0.02960   0.00000  Uiso   1.00
C679   C     0.29460   0.99070   0.04280   0.00000  Uiso   1.00
C680   C     0.31050   0.99730   0.99230   0.00000  Uiso   1.00
C681   C     0.28290   0.00460   0.94690   0.00000  Uiso   1.00
C682   C     0.26850   0.06880   0.93570   0.00000  Uiso   1.00
H683   H     0.27500   0.10680   0.95830   0.00000  Uiso   1.00
C684   C     0.24260   0.08060   0.88880   0.00000  Uiso   1.00
C685   C     0.23310   0.02410   0.85910   0.00000  Uiso   1.00
H686   H     0.21470   0.02970   0.83030   0.00000  Uiso   1.00
C687   C     0.24890   0.95890   0.86880   0.00000  Uiso   1.00
H688   H     0.24260   0.92130   0.84590   0.00000  Uiso   1.00
C689   C     0.27440   0.94780   0.91260   0.00000  Uiso   1.00
H690   H     0.28580   0.90310   0.91910   0.00000  Uiso   1.00
C691   C     0.35180   0.00690   0.98400   0.00000  Uiso   1.00
C692   C     0.36990   0.02210   0.93350   0.00000  Uiso   1.00
H693   H     0.35580   0.02390   0.90070   0.00000  Uiso   1.00
C694   C     0.40880   0.03310   0.94020   0.00000  Uiso   1.00
H695   H     0.42810   0.04390   0.91330   0.00000  Uiso   1.00
C696   C     0.41730   0.02590   0.99580   0.00000  Uiso   1.00
C697   C     0.45540   0.03000   0.01630   0.00000  Uiso   1.00
C698   C     0.49050   0.05290   0.98300   0.00000  Uiso   1.00
C699   C     0.50100   0.11900   0.98350   0.00000  Uiso   1.00
H700   H     0.48520   0.15110   0.00350   0.00000  Uiso   1.00
C701   C     0.53700   0.14470   0.95370   0.00000  Uiso   1.00
C702   C     0.55680   0.09780   0.92750   0.00000  Uiso   1.00
H703   H     0.58080   0.11250   0.90970   0.00000  Uiso   1.00
C704   C     0.54560   0.02360   0.92260   0.00000  Uiso   1.00
H705   H     0.55910   0.99120   0.90020   0.00000  Uiso   1.00
C706   C     0.51270   0.00710   0.95530   0.00000  Uiso   1.00
H707   H     0.50540   0.95930   0.95800   0.00000  Uiso   1.00
C708   C     0.47270   0.18840   0.46650   0.00000  Uiso   1.00
C709   C     0.44380   0.18010   0.50750   0.00000  Uiso   1.00
H710   H     0.44740   0.19070   0.54390   0.00000  Uiso   1.00
C711   C     0.41000   0.15390   0.48460   0.00000  Uiso   1.00
H712   H     0.38590   0.14010   0.50270   0.00000  Uiso   1.00
C713   C     0.41610   0.15020   0.42990   0.00000  Uiso   1.00
C714   C     0.38770   0.13110   0.39140   0.00000  Uiso   1.00
C715   C     0.35010   0.09480   0.40630   0.00000  Uiso   1.00
C716   C     0.34960   0.02330   0.39930   0.00000  Uiso   1.00
H717   H     0.37370   0.00010   0.38770   0.00000  Uiso   1.00
C718   C     0.31360   0.98400   0.40900   0.00000  Uiso   1.00
C719   C     0.27900   0.01790   0.42700   0.00000  Uiso   1.00
H720   H     0.25490   0.99220   0.43480   0.00000  Uiso   1.00
C721   C     0.27980   0.09000   0.43350   0.00000  Uiso   1.00
H722   H     0.25580   0.11320   0.44520   0.00000  Uiso   1.00
C723   C     0.31420   0.12870   0.42330   0.00000  Uiso   1.00
H724   H     0.31380   0.17790   0.42780   0.00000  Uiso   1.00
C725   C     0.39340   0.14560   0.33930   0.00000  Uiso   1.00
C726   C     0.36290   0.14780   0.29950   0.00000  Uiso   1.00
H727   H     0.33540   0.13310   0.30430   0.00000  Uiso   1.00
C728   C     0.37760   0.17260   0.25510   0.00000  Uiso   1.00
H729   H     0.36310   0.18170   0.22330   0.00000  Uiso   1.00
C730   C     0.42200   0.18370   0.26540   0.00000  Uiso   1.00
C731   C     0.45080   0.19850   0.22710   0.00000  Uiso   1.00
C732   C     0.43700   0.21790   0.17350   0.00000  Uiso   1.00
C733   C     0.43380   0.29000   0.16020   0.00000  Uiso   1.00
H734   H     0.44100   0.32500   0.18510   0.00000  Uiso   1.00
C735   C     0.41950   0.30840   0.10880   0.00000  Uiso   1.00
C736   C     0.40870   0.25730   0.07550   0.00000  Uiso   1.00
H737   H     0.39860   0.27020   0.04160   0.00000  Uiso   1.00
C738   C     0.41130   0.18900   0.08690   0.00000  Uiso   1.00
H739   H     0.40330   0.15490   0.06170   0.00000  Uiso   1.00
C740   C     0.42590   0.16910   0.13610   0.00000  Uiso   1.00
H741   H     0.42840   0.12080   0.14420   0.00000  Uiso   1.00
C742   C     0.49140   0.18610   0.23440   0.00000  Uiso   1.00
C743   C     0.52150   0.17700   0.19360   0.00000  Uiso   1.00
H744   H     0.51870   0.18720   0.15710   0.00000  Uiso   1.00
C745   C     0.55570   0.14990   0.21920   0.00000  Uiso   1.00
H746   H     0.58070   0.13740   0.20260   0.00000  Uiso   1.00
C747   C     0.54750   0.14420   0.27280   0.00000  Uiso   1.00
C748   C     0.57760   0.12650   0.30800   0.00000  Uiso   1.00
C749   C     0.61490   0.09360   0.29240   0.00000  Uiso   1.00
C750   C     0.61370   0.02190   0.28380   0.00000  Uiso   1.00
H751   H     0.58890   0.99700   0.28830   0.00000  Uiso   1.00
C752   C     0.64930   0.98670   0.26840   0.00000  Uiso   1.00
C753   C     0.68490   0.02290   0.25860   0.00000  Uiso   1.00
H754   H     0.70890   0.99830   0.24850   0.00000  Uiso   1.00
C755   C     0.68600   0.09430   0.26330   0.00000  Uiso   1.00
H756   H     0.71000   0.11960   0.25420   0.00000  Uiso   1.00
C757   C     0.65060   0.12990   0.28220   0.00000  Uiso   1.00
H758   H     0.65150   0.17890   0.28770   0.00000  Uiso   1.00
C759   C     0.57110   0.14090   0.36370   0.00000  Uiso   1.00
C760   C     0.60250   0.14730   0.40270   0.00000  Uiso   1.00
H761   H     0.63060   0.13640   0.39830   0.00000  Uiso   1.00
C762   C     0.58540   0.17080   0.44490   0.00000  Uiso   1.00
H763   H     0.59930   0.17930   0.47730   0.00000  Uiso   1.00
C764   C     0.54360   0.18220   0.43690   0.00000  Uiso   1.00
C765   C     0.51380   0.19750   0.47490   0.00000  Uiso   1.00
C766   C     0.52860   0.21970   0.52880   0.00000  Uiso   1.00
C767   C     0.51710   0.28440   0.55220   0.00000  Uiso   1.00
H768   H     0.50040   0.31490   0.53210   0.00000  Uiso   1.00
C769   C     0.52880   0.30600   0.60230   0.00000  Uiso   1.00
C770   C     0.55190   0.25900   0.63020   0.00000  Uiso   1.00
H771   H     0.56030   0.27120   0.66500   0.00000  Uiso   1.00
C772   C     0.56410   0.19270   0.60970   0.00000  Uiso   1.00
H773   H     0.58090   0.16280   0.63030   0.00000  Uiso   1.00
C774   C     0.55180   0.17260   0.56120   0.00000  Uiso   1.00
H775   H     0.55840   0.12730   0.54840   0.00000  Uiso   1.00
C776   C     0.17350   0.82740   0.80120   0.00000  Uiso   1.00
C777   C     0.14870   0.84250   0.75580   0.00000  Uiso   1.00
H778   H     0.12350   0.86690   0.75630   0.00000  Uiso   1.00
C779   C     0.16750   0.81610   0.71200   0.00000  Uiso   1.00
H780   H     0.15840   0.81850   0.67630   0.00000  Uiso   1.00
C781   C     0.20370   0.78400   0.73190   0.00000  Uiso   1.00
C782   C     0.23190   0.74610   0.69920   0.00000  Uiso   1.00
C783   C     0.21860   0.73950   0.64260   0.00000  Uiso   1.00
C784   C     0.22000   0.79530   0.60850   0.00000  Uiso   1.00
H785   H     0.22790   0.83950   0.62210   0.00000  Uiso   1.00
C786   C     0.21040   0.79020   0.55470   0.00000  Uiso   1.00
C787   C     0.19840   0.72450   0.53720   0.00000  Uiso   1.00
H788   H     0.19270   0.71830   0.50070   0.00000  Uiso   1.00
C789   C     0.19450   0.66790   0.57050   0.00000  Uiso   1.00
H790   H     0.18440   0.62440   0.55790   0.00000  Uiso   1.00
C791   C     0.20560   0.67630   0.62170   0.00000  Uiso   1.00
H792   H     0.20430   0.63690   0.64450   0.00000  Uiso   1.00
C793   C     0.26540   0.71680   0.71680   0.00000  Uiso   1.00
C794   C     0.29520   0.68560   0.68260   0.00000  Uiso   1.00
H795   H     0.29270   0.67770   0.64570   0.00000  Uiso   1.00
C796   C     0.32930   0.66890   0.71500   0.00000  Uiso   1.00
H797   H     0.35430   0.64860   0.70380   0.00000  Uiso   1.00
C798   C     0.31870   0.68810   0.76610   0.00000  Uiso   1.00
C799   C     0.34380   0.67850   0.80860   0.00000  Uiso   1.00
C800   C     0.38570   0.64380   0.80050   0.00000  Uiso   1.00
C801   C     0.39070   0.57560   0.79440   0.00000  Uiso   1.00
H802   H     0.36720   0.54690   0.79860   0.00000  Uiso   1.00
C803   C     0.42540   0.54440   0.78300   0.00000  Uiso   1.00
C804   C     0.46360   0.58170   0.78530   0.00000  Uiso   1.00
H805   H     0.48960   0.55980   0.78480   0.00000  Uiso   1.00
C806   C     0.45760   0.65550   0.78850   0.00000  Uiso   1.00
H807   H     0.48010   0.68560   0.78180   0.00000  Uiso   1.00
C808   C     0.42190   0.68290   0.80030   0.00000  Uiso   1.00
H809   H     0.42060   0.73100   0.80910   0.00000  Uiso   1.00
C810   C     0.33390   0.69770   0.85960   0.00000  Uiso   1.00
C811   C     0.35900   0.68350   0.90540   0.00000  Uiso   1.00
H812   H     0.38530   0.66260   0.90550   0.00000  Uiso   1.00
C813   C     0.33880   0.70460   0.94630   0.00000  Uiso   1.00
H814   H     0.34810   0.70200   0.98180   0.00000  Uiso   1.00
C815   C     0.30000   0.73250   0.92980   0.00000  Uiso   1.00
C816   C     0.27130   0.76050   0.96390   0.00000  Uiso   1.00
C817   C     0.27860   0.75920   0.02100   0.00000  Uiso   1.00
C818   C     0.26090   0.71000   0.05170   0.00000  Uiso   1.00
H819   H     0.24530   0.67460   0.03490   0.00000  Uiso   1.00
C820   C     0.26440   0.70830   0.10750   0.00000  Uiso   1.00
C821   C     0.28620   0.76130   0.13120   0.00000  Uiso   1.00
H822   H     0.28700   0.76370   0.16870   0.00000  Uiso   1.00
C823   C     0.30770   0.81260   0.10100   0.00000  Uiso   1.00
H824   H     0.32420   0.84710   0.11750   0.00000  Uiso   1.00
C825   C     0.30320   0.80970   0.04610   0.00000  Uiso   1.00
H826   H     0.31710   0.84300   0.02500   0.00000  Uiso   1.00
C827   C     0.23600   0.78800   0.94440   0.00000  Uiso   1.00
C828   C     0.20530   0.81810   0.97870   0.00000  Uiso   1.00
H829   H     0.20670   0.82130   0.01610   0.00000  Uiso   1.00
C830   C     0.17480   0.84010   0.94860   0.00000  Uiso   1.00
H831   H     0.15040   0.86180   0.96030   0.00000  Uiso   1.00
C832   C     0.18590   0.82500   0.89500   0.00000  Uiso   1.00
C833   C     0.16110   0.84150   0.85310   0.00000  Uiso   1.00
C834   C     0.12330   0.87980   0.85970   0.00000  Uiso   1.00
C835   C     0.12070   0.95090   0.85330   0.00000  Uiso   1.00
H836   H     0.14570   0.97490   0.84710   0.00000  Uiso   1.00
C837   C     0.08760   0.98930   0.85480   0.00000  Uiso   1.00
C838   C     0.05340   0.95320   0.87400   0.00000  Uiso   1.00
H839   H     0.02890   0.97880   0.87910   0.00000  Uiso   1.00
C840   C     0.05310   0.88180   0.88610   0.00000  Uiso   1.00
H841   H     0.02980   0.85940   0.90050   0.00000  Uiso   1.00
C842   C     0.08860   0.84630   0.87590   0.00000  Uiso   1.00
H843   H     0.08910   0.79700   0.88010   0.00000  Uiso   1.00
Zn844  Zn    0.51407   0.37807   0.75490   0.00000  Uiso   1.00
Zn845  Zn    0.76854   0.31623   0.76433   0.00000  Uiso   1.00
Zn846  Zn    0.76719   0.18981   0.89532   0.00000  Uiso   1.00
Ni847  Ni    0.62367   0.00624   0.59773   0.00000  Uiso   1.00
Ni848  Ni    0.51753   0.83192   0.85117   0.00000  Uiso   1.00
Ni849  Ni    0.74771   0.24295   0.33093   0.00000  Uiso   1.00
P850   P     0.47612   0.23615   0.79716   0.00000  Uiso   1.00
P851   P     0.80771   0.16911   0.78151   0.00000  Uiso   1.00
P852   P     0.77593   0.83448   0.37465   0.00000  Uiso   1.00
P853   P     0.44740   0.77040   0.45600   0.00000  Uiso   1.00
P854   P     0.68435   0.10917   0.90228   0.00000  Uiso   1.00
P855   P     0.58665   0.60110   0.59142   0.00000  Uiso   1.00
P856   P     0.35162   0.10650   0.76160   0.00000  Uiso   1.00
P857   P     0.48561   0.61260   0.12840   0.00000  Uiso   1.00
P858   P     0.78683   0.13590   0.01238   0.00000  Uiso   1.00
P859   P     0.57028   0.54960   0.26850   0.00000  Uiso   1.00
P860   P     0.75645   0.36230   0.64443   0.00000  Uiso   1.00
P861   P     0.91372   0.91770   0.34130   0.00000  Uiso   1.00
O862   O     0.50390   0.28040   0.76400   0.00000  Uiso   1.00
O863   O     0.47600   0.25480   0.85600   0.00000  Uiso   1.00
H864   H     0.50120   0.25570   0.86620   0.00000  Uiso   1.00
O865   O     0.43240   0.23760   0.78250   0.00000  Uiso   1.00
O866   O     0.78160   0.22030   0.75100   0.00000  Uiso   1.00
O867   O     0.80910   0.18460   0.84120   0.00000  Uiso   1.00
O868   O     0.85070   0.16730   0.76120   0.00000  Uiso   1.00
O869   O     0.77370   0.82430   0.31670   0.00000  Uiso   1.00
O870   O     0.75090   0.78410   0.40830   0.00000  Uiso   1.00
O871   O     0.82160   0.83200   0.39190   0.00000  Uiso   1.00
O872   O     0.45070   0.73030   0.40630   0.00000  Uiso   1.00
O873   O     0.46970   0.72260   0.50050   0.00000  Uiso   1.00
H874   H     0.45190   0.69290   0.51200   0.00000  Uiso   1.00
O875   O     0.40280   0.77200   0.46950   0.00000  Uiso   1.00
O876   O     0.72230   0.13220   0.87490   0.00000  Uiso   1.00
O877   O     0.64570   0.12750   0.87600   0.00000  Uiso   1.00
O878   O     0.68340   0.13700   0.95930   0.00000  Uiso   1.00
O879   O     0.63100   0.57920   0.60420   0.00000  Uiso   1.00
H880   H     0.64490   0.57980   0.57440   0.00000  Uiso   1.00
O881   O     0.57800   0.59420   0.53440   0.00000  Uiso   1.00
O882   O     0.55850   0.55730   0.62670   0.00000  Uiso   1.00
O883   O     0.35450   0.12400   0.70630   0.00000  Uiso   1.00
O884   O     0.31530   0.13500   0.79040   0.00000  Uiso   1.00
O885   O     0.39190   0.12810   0.78920   0.00000  Uiso   1.00
H886   H     0.40600   0.15190   0.76380   0.00000  Uiso   1.00
O887   O     0.46530   0.55950   0.09210   0.00000  Uiso   1.00
H888   H     0.45680   0.52590   0.11150   0.00000  Uiso   1.00
O889   O     0.46940   0.60650   0.18330   0.00000  Uiso   1.00
O890   O     0.53170   0.60980   0.12630   0.00000  Uiso   1.00
H891   H     0.54000   0.57500   0.14350   0.00000  Uiso   1.00
O892   O     0.79730   0.15810   0.95750   0.00000  Uiso   1.00
O893   O     0.74340   0.10790   0.01760   0.00000  Uiso   1.00
H894   H     0.72750   0.12830   0.99470   0.00000  Uiso   1.00
O895   O     0.81640   0.08060   0.03360   0.00000  Uiso   1.00
O896   O     0.52940   0.57200   0.27790   0.00000  Uiso   1.00
O897   O     0.60420   0.58330   0.30700   0.00000  Uiso   1.00
H898   H     0.62150   0.60480   0.28840   0.00000  Uiso   1.00
O899   O     0.57810   0.56690   0.20880   0.00000  Uiso   1.00
O900   O     0.74060   0.42850   0.62020   0.00000  Uiso   1.00
O901   O     0.74550   0.35520   0.70160   0.00000  Uiso   1.00
O902   O     0.80290   0.35830   0.63490   0.00000  Uiso   1.00
H903   H     0.81520   0.36090   0.66400   0.00000  Uiso   1.00
O904   O     0.86930   0.89480   0.32950   0.00000  Uiso   1.00
H905   H     0.85980   0.87710   0.35890   0.00000  Uiso   1.00
O906   O     0.93230   0.88600   0.38990   0.00000  Uiso   1.00
H907   H     0.93360   0.84250   0.38630   0.00000  Uiso   1.00
O908   O     0.93940   0.91260   0.29080   0.00000  Uiso   1.00
N909   N     0.56510   0.00640   0.60580   0.00000  Uiso   1.00
N910   N     0.62870   0.01890   0.67310   0.00000  Uiso   1.00
N911   N     0.68330   0.00820   0.59030   0.00000  Uiso   1.00
N912   N     0.61710   0.99160   0.52220   0.00000  Uiso   1.00
N913   N     0.54370   0.82950   0.91810   0.00000  Uiso   1.00
N914   N     0.56950   0.83230   0.81750   0.00000  Uiso   1.00
N915   N     0.49210   0.83270   0.78450   0.00000  Uiso   1.00
N916   N     0.46670   0.83470   0.88530   0.00000  Uiso   1.00
N917   N     0.79150   0.20960   0.28670   0.00000  Uiso   1.00
N918   N     0.71960   0.28060   0.26910   0.00000  Uiso   1.00
N919   N     0.70180   0.27240   0.37620   0.00000  Uiso   1.00
N920   N     0.77620   0.20970   0.39280   0.00000  Uiso   1.00
C921   C     0.53640   0.98580   0.56900   0.00000  Uiso   1.00
C922   C     0.49550   0.98890   0.58950   0.00000  Uiso   1.00
H923   H     0.47100   0.97590   0.57200   0.00000  Uiso   1.00
C924   C     0.49950   0.01500   0.64070   0.00000  Uiso   1.00
H925   H     0.47800   0.02540   0.66470   0.00000  Uiso   1.00
C926   C     0.54200   0.02300   0.65010   0.00000  Uiso   1.00
C927   C     0.55770   0.03900   0.69830   0.00000  Uiso   1.00
C928   C     0.52990   0.05910   0.74240   0.00000  Uiso   1.00
C929   C     0.51830   0.12780   0.74900   0.00000  Uiso   1.00
H930   H     0.52710   0.16230   0.72450   0.00000  Uiso   1.00
C931   C     0.49400   0.14610   0.79100   0.00000  Uiso   1.00
C932   C     0.48240   0.09550   0.82650   0.00000  Uiso   1.00
H933   H     0.46610   0.10870   0.85590   0.00000  Uiso   1.00
C934   C     0.49300   0.02850   0.82140   0.00000  Uiso   1.00
H935   H     0.48390   0.99510   0.84640   0.00000  Uiso   1.00
C936   C     0.51670   0.00840   0.78060   0.00000  Uiso   1.00
H937   H     0.52470   0.96090   0.77710   0.00000  Uiso   1.00
C938   C     0.59980   0.03410   0.70970   0.00000  Uiso   1.00
C939   C     0.61660   0.04120   0.76170   0.00000  Uiso   1.00
H940   H     0.60190   0.05210   0.79300   0.00000  Uiso   1.00
C941   C     0.65600   0.03000   0.75820   0.00000  Uiso   1.00
H942   H     0.67500   0.03060   0.78670   0.00000  Uiso   1.00
C943   C     0.66580   0.01640   0.70250   0.00000  Uiso   1.00
C944   C     0.70400   0.00980   0.68230   0.00000  Uiso   1.00
C945   C     0.73750   0.01290   0.72260   0.00000  Uiso   1.00
C946   C     0.75770   0.07550   0.72990   0.00000  Uiso   1.00
H947   H     0.75270   0.11310   0.70630   0.00000  Uiso   1.00
C948   C     0.78500   0.08420   0.77110   0.00000  Uiso   1.00
C949   C     0.79270   0.02940   0.80560   0.00000  Uiso   1.00
H950   H     0.81120   0.03560   0.83410   0.00000  Uiso   1.00
C951   C     0.77340   0.96520   0.79860   0.00000  Uiso   1.00
H952   H     0.77910   0.92750   0.82180   0.00000  Uiso   1.00
C953   C     0.74540   0.95690   0.75690   0.00000  Uiso   1.00
H954   H     0.73190   0.91350   0.75200   0.00000  Uiso   1.00
C955   C     0.71080   0.00820   0.62920   0.00000  Uiso   1.00
C956   C     0.75230   0.00820   0.60590   0.00000  Uiso   1.00
H957   H     0.77730   0.00680   0.62500   0.00000  Uiso   1.00
C958   C     0.74850   0.01060   0.55460   0.00000  Uiso   1.00
H959   H     0.77010   0.01280   0.52960   0.00000  Uiso   1.00
C960   C     0.70540   0.00930   0.54280   0.00000  Uiso   1.00
C961   C     0.68950   0.00270   0.49230   0.00000  Uiso   1.00
C962   C     0.71710   0.99540   0.44690   0.00000  Uiso   1.00
C963   C     0.73150   0.93120   0.43570   0.00000  Uiso   1.00
H964   H     0.72500   0.89320   0.45830   0.00000  Uiso   1.00
C965   C     0.75740   0.91940   0.38880   0.00000  Uiso   1.00
C966   C     0.76690   0.97590   0.35910   0.00000  Uiso   1.00
H967   H     0.78530   0.97030   0.33030   0.00000  Uiso   1.00
C968   C     0.75110   0.04110   0.36880   0.00000  Uiso   1.00
H969   H     0.75740   0.07870   0.34590   0.00000  Uiso   1.00
C970   C     0.72560   0.05220   0.41260   0.00000  Uiso   1.00
H971   H     0.71420   0.09690   0.41910   0.00000  Uiso   1.00
C972   C     0.64820   0.99310   0.48400   0.00000  Uiso   1.00
C973   C     0.63010   0.97790   0.43350   0.00000  Uiso   1.00
H974   H     0.64420   0.97610   0.40070   0.00000  Uiso   1.00
C975   C     0.59120   0.96690   0.44020   0.00000  Uiso   1.00
H976   H     0.57190   0.95610   0.41330   0.00000  Uiso   1.00
C977   C     0.58270   0.97410   0.49580   0.00000  Uiso   1.00
C978   C     0.54460   0.97000   0.51630   0.00000  Uiso   1.00
C979   C     0.50950   0.94710   0.48300   0.00000  Uiso   1.00
C980   C     0.49900   0.88100   0.48350   0.00000  Uiso   1.00
H981   H     0.51480   0.84890   0.50350   0.00000  Uiso   1.00
C982   C     0.46300   0.85530   0.45370   0.00000  Uiso   1.00
C983   C     0.44320   0.90220   0.42750   0.00000  Uiso   1.00
H984   H     0.41920   0.88750   0.40970   0.00000  Uiso   1.00
C985   C     0.45440   0.97640   0.42260   0.00000  Uiso   1.00
H986   H     0.44090   0.00880   0.40020   0.00000  Uiso   1.00
C987   C     0.48730   0.99290   0.45530   0.00000  Uiso   1.00
H988   H     0.49460   0.04070   0.45800   0.00000  Uiso   1.00
C989   C     0.52730   0.81160   0.96650   0.00000  Uiso   1.00
C990   C     0.55620   0.81990   0.00750   0.00000  Uiso   1.00
H991   H     0.55260   0.80930   0.04390   0.00000  Uiso   1.00
C992   C     0.59000   0.84610   0.98460   0.00000  Uiso   1.00
H993   H     0.61410   0.85990   0.00270   0.00000  Uiso   1.00
C994   C     0.58390   0.84980   0.92990   0.00000  Uiso   1.00
C995   C     0.61230   0.86890   0.89140   0.00000  Uiso   1.00
C996   C     0.64990   0.90520   0.90630   0.00000  Uiso   1.00
C997   C     0.65040   0.97670   0.89930   0.00000  Uiso   1.00
H998   H     0.62630   0.99990   0.88770   0.00000  Uiso   1.00
C999   C     0.68640   0.01600   0.90900   0.00000  Uiso   1.00
C1000  C     0.72100   0.98210   0.92700   0.00000  Uiso   1.00
H1001  H     0.74510   0.00780   0.93480   0.00000  Uiso   1.00
C1002  C     0.72020   0.91000   0.93350   0.00000  Uiso   1.00
H1003  H     0.74420   0.88680   0.94520   0.00000  Uiso   1.00
C1004  C     0.68580   0.87130   0.92330   0.00000  Uiso   1.00
H1005  H     0.68620   0.82210   0.92780   0.00000  Uiso   1.00
C1006  C     0.60660   0.85440   0.83930   0.00000  Uiso   1.00
C1007  C     0.63710   0.85220   0.79950   0.00000  Uiso   1.00
H1008  H     0.66460   0.86690   0.80430   0.00000  Uiso   1.00
C1009  C     0.62240   0.82740   0.75510   0.00000  Uiso   1.00
H1010  H     0.63690   0.81830   0.72330   0.00000  Uiso   1.00
C1011  C     0.57800   0.81630   0.76540   0.00000  Uiso   1.00
C1012  C     0.54920   0.80150   0.72710   0.00000  Uiso   1.00
C1013  C     0.56300   0.78210   0.67350   0.00000  Uiso   1.00
C1014  C     0.56620   0.71000   0.66020   0.00000  Uiso   1.00
H1015  H     0.55900   0.67500   0.68510   0.00000  Uiso   1.00
C1016  C     0.58050   0.69160   0.60880   0.00000  Uiso   1.00
C1017  C     0.59130   0.74270   0.57550   0.00000  Uiso   1.00
H1018  H     0.60140   0.72980   0.54160   0.00000  Uiso   1.00
C1019  C     0.58870   0.81100   0.58690   0.00000  Uiso   1.00
H1020  H     0.59670   0.84510   0.56170   0.00000  Uiso   1.00
C1021  C     0.57410   0.83090   0.63610   0.00000  Uiso   1.00
H1022  H     0.57160   0.87920   0.64420   0.00000  Uiso   1.00
C1023  C     0.50860   0.81390   0.73440   0.00000  Uiso   1.00
C1024  C     0.47850   0.82300   0.69360   0.00000  Uiso   1.00
H1025  H     0.48130   0.81280   0.65710   0.00000  Uiso   1.00
C1026  C     0.44430   0.85010   0.71920   0.00000  Uiso   1.00
H1027  H     0.41930   0.86260   0.70260   0.00000  Uiso   1.00
C1028  C     0.45250   0.85580   0.77280   0.00000  Uiso   1.00
C1029  C     0.42240   0.87350   0.80800   0.00000  Uiso   1.00
C1030  C     0.38510   0.90640   0.79240   0.00000  Uiso   1.00
C1031  C     0.38630   0.97810   0.78380   0.00000  Uiso   1.00
H1032  H     0.41110   0.00300   0.78830   0.00000  Uiso   1.00
C1033  C     0.35070   0.01330   0.76840   0.00000  Uiso   1.00
C1034  C     0.31510   0.97710   0.75860   0.00000  Uiso   1.00
H1035  H     0.29110   0.00170   0.74850   0.00000  Uiso   1.00
C1036  C     0.31400   0.90570   0.76330   0.00000  Uiso   1.00
H1037  H     0.29000   0.88040   0.75420   0.00000  Uiso   1.00
C1038  C     0.34940   0.87010   0.78220   0.00000  Uiso   1.00
H1039  H     0.34850   0.82110   0.78770   0.00000  Uiso   1.00
C1040  C     0.42890   0.85910   0.86370   0.00000  Uiso   1.00
C1041  C     0.39750   0.85270   0.90270   0.00000  Uiso   1.00
H1042  H     0.36940   0.86360   0.89830   0.00000  Uiso   1.00
C1043  C     0.41460   0.82920   0.94490   0.00000  Uiso   1.00
H1044  H     0.40070   0.82070   0.97730   0.00000  Uiso   1.00
C1045  C     0.45640   0.81780   0.93690   0.00000  Uiso   1.00
C1046  C     0.48620   0.80250   0.97490   0.00000  Uiso   1.00
C1047  C     0.47140   0.78030   0.02880   0.00000  Uiso   1.00
C1048  C     0.48290   0.71560   0.05220   0.00000  Uiso   1.00
H1049  H     0.49960   0.68510   0.03210   0.00000  Uiso   1.00
C1050  C     0.47120   0.69400   0.10230   0.00000  Uiso   1.00
C1051  C     0.44810   0.74100   0.13020   0.00000  Uiso   1.00
H1052  H     0.43970   0.72880   0.16500   0.00000  Uiso   1.00
C1053  C     0.43590   0.80730   0.10970   0.00000  Uiso   1.00
H1054  H     0.41910   0.83720   0.13030   0.00000  Uiso   1.00
C1055  C     0.44820   0.82740   0.06120   0.00000  Uiso   1.00
H1056  H     0.44160   0.87270   0.04840   0.00000  Uiso   1.00
C1057  C     0.82650   0.17260   0.30120   0.00000  Uiso   1.00
C1058  C     0.85130   0.15750   0.25580   0.00000  Uiso   1.00
H1059  H     0.87650   0.13310   0.25630   0.00000  Uiso   1.00
C1060  C     0.83250   0.18390   0.21200   0.00000  Uiso   1.00
H1061  H     0.84160   0.18150   0.17630   0.00000  Uiso   1.00
C1062  C     0.79630   0.21600   0.23190   0.00000  Uiso   1.00
C1063  C     0.76810   0.25390   0.19920   0.00000  Uiso   1.00
C1064  C     0.78140   0.26050   0.14260   0.00000  Uiso   1.00
C1065  C     0.78000   0.20470   0.10850   0.00000  Uiso   1.00
H1066  H     0.77210   0.16050   0.12210   0.00000  Uiso   1.00
C1067  C     0.78960   0.20980   0.05470   0.00000  Uiso   1.00
C1068  C     0.80160   0.27550   0.03720   0.00000  Uiso   1.00
H1069  H     0.80730   0.28170   0.00070   0.00000  Uiso   1.00
C1070  C     0.80550   0.33210   0.07050   0.00000  Uiso   1.00
H1071  H     0.81560   0.37560   0.05790   0.00000  Uiso   1.00
C1072  C     0.79440   0.32370   0.12170   0.00000  Uiso   1.00
H1073  H     0.79570   0.36310   0.14450   0.00000  Uiso   1.00
C1074  C     0.73460   0.28320   0.21680   0.00000  Uiso   1.00
C1075  C     0.70480   0.31440   0.18260   0.00000  Uiso   1.00
H1076  H     0.70730   0.32230   0.14570   0.00000  Uiso   1.00
C1077  C     0.67070   0.33110   0.21500   0.00000  Uiso   1.00
H1078  H     0.64570   0.35140   0.20380   0.00000  Uiso   1.00
C1079  C     0.68130   0.31190   0.26610   0.00000  Uiso   1.00
C1080  C     0.65620   0.32150   0.30860   0.00000  Uiso   1.00
C1081  C     0.61430   0.35620   0.30050   0.00000  Uiso   1.00
C1082  C     0.60930   0.42440   0.29440   0.00000  Uiso   1.00
H1083  H     0.63280   0.45310   0.29860   0.00000  Uiso   1.00
C1084  C     0.57460   0.45560   0.28300   0.00000  Uiso   1.00
C1085  C     0.53640   0.41830   0.28530   0.00000  Uiso   1.00
H1086  H     0.51040   0.44020   0.28480   0.00000  Uiso   1.00
C1087  C     0.54240   0.34450   0.28850   0.00000  Uiso   1.00
H1088  H     0.51990   0.31440   0.28180   0.00000  Uiso   1.00
C1089  C     0.57810   0.31710   0.30030   0.00000  Uiso   1.00
H1090  H     0.57940   0.26900   0.30910   0.00000  Uiso   1.00
C1091  C     0.66610   0.30230   0.35960   0.00000  Uiso   1.00
C1092  C     0.64100   0.31650   0.40540   0.00000  Uiso   1.00
H1093  H     0.61470   0.33740   0.40550   0.00000  Uiso   1.00
C1094  C     0.66120   0.29540   0.44630   0.00000  Uiso   1.00
H1095  H     0.65190   0.29800   0.48180   0.00000  Uiso   1.00
C1096  C     0.70000   0.26750   0.42980   0.00000  Uiso   1.00
C1097  C     0.72870   0.23950   0.46390   0.00000  Uiso   1.00
C1098  C     0.72140   0.24080   0.52100   0.00000  Uiso   1.00
C1099  C     0.73910   0.29000   0.55170   0.00000  Uiso   1.00
H1100  H     0.75470   0.32540   0.53490   0.00000  Uiso   1.00
C1101  C     0.73560   0.29170   0.60750   0.00000  Uiso   1.00
C1102  C     0.71380   0.23870   0.63120   0.00000  Uiso   1.00
H1103  H     0.71300   0.23630   0.66870   0.00000  Uiso   1.00
C1104  C     0.69230   0.18740   0.60100   0.00000  Uiso   1.00
H1105  H     0.67580   0.15290   0.61750   0.00000  Uiso   1.00
C1106  C     0.69680   0.19030   0.54610   0.00000  Uiso   1.00
H1107  H     0.68290   0.15700   0.52500   0.00000  Uiso   1.00
C1108  C     0.76400   0.21200   0.44440   0.00000  Uiso   1.00
C1109  C     0.79470   0.18190   0.47870   0.00000  Uiso   1.00
H1110  H     0.79330   0.17870   0.51610   0.00000  Uiso   1.00
C1111  C     0.82520   0.15990   0.44860   0.00000  Uiso   1.00
H1112  H     0.84960   0.13820   0.46030   0.00000  Uiso   1.00
C1113  C     0.81410   0.17500   0.39500   0.00000  Uiso   1.00
C1114  C     0.83890   0.15850   0.35310   0.00000  Uiso   1.00
C1115  C     0.87670   0.12020   0.35970   0.00000  Uiso   1.00
C1116  C     0.87930   0.04910   0.35330   0.00000  Uiso   1.00
H1117  H     0.85430   0.02510   0.34710   0.00000  Uiso   1.00
C1118  C     0.91240   0.01070   0.35480   0.00000  Uiso   1.00
C1119  C     0.94660   0.04680   0.37400   0.00000  Uiso   1.00
H1120  H     0.97110   0.02120   0.37910   0.00000  Uiso   1.00
C1121  C     0.94690   0.11820   0.38610   0.00000  Uiso   1.00
H1122  H     0.97020   0.14060   0.40050   0.00000  Uiso   1.00
C1123  C     0.91140   0.15370   0.37590   0.00000  Uiso   1.00
H1124  H     0.91090   0.20300   0.38010   0.00000  Uiso   1.00
loop_
_geom_bond_atom_site_label_1
_geom_bond_atom_site_label_2
_geom_bond_distance
_geom_bond_site_symmetry_2
_ccdc_geom_bond_type
Zn1    O19     1.915   .     S
Zn1    O327    1.913   .     S
Zn1    O334    1.810   1_655 S
Zn1    O908    1.892   .     S
Zn2    O23     1.917   .     S
Zn2    O869    1.921   .     S
Zn2    O603    1.910   .     S
Zn2    O58     1.909   .     S
Zn3    O24     1.941   .     S
Zn3    O33     1.909   .     S
Zn3    O49     1.953   .     S
Zn3    O870    1.929   .     S
Ni4    N66     1.928   .     S
Ni4    N67     1.929   .     S
Ni4    N68     1.961   .     S
Ni4    N69     1.943   .     S
Ni5    N70     1.898   .     S
Ni5    N71     1.902   .     S
Ni5    N72     1.881   1_655 S
Ni5    N73     1.875   1_655 S
Ni6    N74     1.927   .     S
Ni6    N75     1.953   .     S
Ni6    N76     1.972   .     S
Ni6    N77     1.930   .     S
P7     O19     1.500   1_455 S
P7     O20     1.531   .     S
P7     O22     1.478   .     S
P7     C88     1.828   .     S
P8     O23     1.513   .     S
P8     O24     1.540   .     S
P8     O25     1.498   .     S
P8     C105    1.808   .     S
P9     O26     1.481   .     S
P9     O27     1.526   .     S
P9     O28     1.558   .     S
P9     C122    1.773   .     S
P10    O29     1.477   .     S
P10    O30     1.624   1_556 S
P10    O32     1.499   .     S
P10    C139    1.706   .     S
P11    O33     1.489   .     S
P11    O34     1.471   .     S
P11    O35     1.538   .     S
P11    C156    1.794   .     S
P12    O36     1.545   .     S
P12    O38     1.476   .     S
P12    O39     1.533   .     S
P12    C173    1.800   .     S
P13    O40     1.442   .     S
P13    O41     1.497   .     S
P13    O42     1.548   .     S
P13    C190    1.794   .     S
P14    O44     1.523   .     S
P14    O46     1.491   .     S
P14    O47     1.510   1_455 S
P14    C207    1.758   .     S
P15    O49     1.492   .     S
P15    O50     1.525   .     S
P15    O52     1.532   .     S
P15    C224    1.777   .     S
P16    O53     1.425   .     S
P16    O54     1.612   .     S
P16    O56     1.567   .     S
P16    C241    1.843   1_545 S
P17    O57     1.501   .     S
P17    O58     1.496   .     S
P17    O59     1.541   .     S
P17    C258    1.780   .     S
P18    O61     1.548   .     S
P18    O63     1.500   .     S
P18    O65     1.532   .     S
P18    C275    1.815   .     S
O19    P7      1.500   1_655 S
O20    H21     0.864   1_455 S
H21    O20     0.864   1_655 S
O26    Zn845   1.921   .     S
O27    Zn846   1.929   .     S
O30    P10     1.624   1_554 S
O30    H31     0.865   .     S
O36    H37     0.881   .     S
O41    Zn564   1.910   .     S
O42    H43     0.913   .     S
O44    H45     0.856   .     S
O46    Zn282   1.913   .     S
O47    P14     1.510   1_655 S
O47    H48     0.841   .     S
O50    H51     0.871   .     S
O53    Zn282   1.810   1_655 S
O54    H55     0.844   .     S
O59    H60     0.840   .     S
O61    H62     0.875   .     S
O63    H64     0.839   .     S
O65    Zn844   1.892   .     S
N66    C78     1.380   .     S
N66    C83     1.389   .     S
N67    C95     1.355   .     S
N67    C100    1.425   .     S
N68    C112    1.334   .     S
N68    C117    1.403   .     S
N69    C129    1.404   1_554 S
N69    C134    1.351   1_554 S
N70    C146    1.380   .     S
N70    C151    1.404   .     S
N71    C163    1.399   .     S
N71    C168    1.381   .     S
N72    Ni5     1.881   1_455 S
N72    C180    1.424   1_455 S
N72    C185    1.401   .     S
N73    Ni5     1.875   1_455 S
N73    C197    1.431   .     S
N73    C202    1.386   .     S
N74    C214    1.396   .     S
N74    C219    1.401   .     S
N75    C231    1.412   .     S
N75    C236    1.392   .     S
N76    C248    1.367   .     S
N76    C253    1.360   .     S
N77    C265    1.366   .     S
N77    C270    1.408   .     S
C78    C79     1.437   1_655 S
C78    C135    1.393   .     S
C79    C78     1.437   1_455 S
C79    H80     0.949   .     S
C79    C81     1.395   .     S
C81    H82     0.950   .     S
C81    C83     1.419   1_455 S
C83    C84     1.358   .     S
C83    C81     1.419   1_655 S
C84    C85     1.490   .     S
C84    C95     1.411   .     S
C85    C86     1.380   .     S
C85    C93     1.437   .     S
C86    H87     0.951   .     S
C86    C88     1.373   1_655 S
C88    C89     1.375   .     S
C88    C86     1.373   1_455 S
C89    H90     0.950   .     S
C89    C91     1.336   .     S
C91    H92     0.948   .     S
C91    C93     1.347   1_455 S
C93    H94     0.951   .     S
C93    C91     1.347   1_655 S
C95    C96     1.432   .     S
C96    H97     0.950   .     S
C96    C98     1.310   .     S
C98    H99     0.952   .     S
C98    C100    1.468   .     S
C100   C101    1.356   .     S
C101   C102    1.498   .     S
C101   C112    1.362   .     S
C102   C103    1.382   .     S
C102   C110    1.404   .     S
C103   H104    0.950   .     S
C103   C105    1.383   .     S
C105   C106    1.388   .     S
C106   H107    0.949   .     S
C106   C108    1.394   .     S
C108   H109    0.949   .     S
C108   C110    1.406   .     S
C110   H111    0.950   .     S
C112   C113    1.481   .     S
C113   H114    0.951   .     S
C113   C115    1.304   .     S
C115   H116    0.949   .     S
C115   C117    1.442   .     S
C117   C118    1.385   1_554 S
C118   C117    1.385   1_556 S
C118   C119    1.468   .     S
C118   C129    1.380   .     S
C119   C120    1.347   .     S
C119   C127    1.419   .     S
C120   H121    0.950   .     S
C120   C122    1.476   .     S
C122   C123    1.354   .     S
C123   H124    0.951   .     S
C123   C125    1.374   .     S
C125   H126    0.947   .     S
C125   C127    1.403   .     S
C127   H128    0.949   .     S
C129   N69     1.404   1_556 S
C129   C130    1.438   .     S
C130   H131    0.950   .     S
C130   C132    1.301   .     S
C132   H133    0.951   .     S
C132   C134    1.440   .     S
C134   N69     1.351   1_556 S
C134   C135    1.353   1_556 S
C135   C136    1.491   1_554 S
C135   C134    1.353   1_554 S
C136   C135    1.491   1_556 S
C136   C137    1.312   1_655 S
C136   C144    1.337   1_655 S
C137   C136    1.312   1_455 S
C137   H138    0.950   1_456 S
C137   C139    1.483   .     S
H138   C137    0.950   1_654 S
C139   C140    1.291   .     S
C140   H141    0.948   .     S
C140   C142    1.473   .     S
C142   H143    0.950   .     S
C142   C144    1.394   .     S
C144   C136    1.337   1_455 S
C144   H145    0.949   .     S
C146   C147    1.413   .     S
C146   C203    1.373   1_655 S
C147   H148    0.950   .     S
C147   C149    1.346   .     S
C149   H150    0.950   .     S
C149   C151    1.400   .     S
C151   C152    1.395   .     S
C152   C153    1.463   .     S
C152   C163    1.360   .     S
C153   C154    1.381   .     S
C153   C161    1.410   .     S
C154   H155    0.952   .     S
C154   C156    1.420   .     S
C156   C157    1.383   .     S
C157   H158    0.951   .     S
C157   C159    1.391   .     S
C159   H160    0.950   .     S
C159   C161    1.373   .     S
C161   H162    0.950   .     S
C163   C164    1.418   .     S
C164   H165    0.951   .     S
C164   C166    1.311   .     S
C166   H167    0.950   .     S
C166   C168    1.491   .     S
C168   C169    1.381   .     S
C169   C170    1.477   .     S
C169   C180    1.362   .     S
C170   C171    1.426   .     S
C170   C178    1.379   .     S
C171   H172    0.950   .     S
C171   C173    1.426   .     S
C173   C174    1.339   .     S
C174   H175    0.952   .     S
C174   C176    1.343   .     S
C176   H177    0.950   .     S
C176   C178    1.387   .     S
C178   H179    0.951   .     S
C180   N72     1.424   1_655 S
C180   C181    1.437   1_655 S
C181   C180    1.437   1_455 S
C181   H182    0.948   .     S
C181   C183    1.393   .     S
C183   H184    0.950   .     S
C183   C185    1.387   .     S
C185   C186    1.371   .     S
C186   C187    1.429   .     S
C186   C197    1.451   .     S
C187   C188    1.391   .     S
C187   C195    1.384   .     S
C188   H189    0.948   .     S
C188   C190    1.401   .     S
C190   C191    1.378   .     S
C191   H192    0.951   .     S
C191   C193    1.374   .     S
C193   H194    0.951   .     S
C193   C195    1.427   .     S
C195   H196    0.950   .     S
C197   C198    1.430   .     S
C198   H199    0.950   .     S
C198   C200    1.287   .     S
C200   H201    0.951   .     S
C200   C202    1.400   .     S
C202   C203    1.400   .     S
C203   C146    1.373   1_455 S
C203   C204    1.508   .     S
C204   C205    1.424   .     S
C204   C212    1.436   .     S
C205   H206    0.948   .     S
C205   C207    1.387   .     S
C207   C208    1.371   .     S
C208   H209    0.951   .     S
C208   C210    1.429   .     S
C210   H211    0.950   .     S
C210   C212    1.347   .     S
C212   H213    0.951   .     S
C214   C215    1.436   .     S
C214   C271    1.401   .     S
C215   H216    0.948   .     S
C215   C217    1.365   .     S
C217   H218    0.952   .     S
C217   C219    1.427   .     S
C219   C220    1.436   .     S
C220   C221    1.502   .     S
C220   C231    1.310   .     S
C221   C222    1.374   .     S
C221   C229    1.388   .     S
C222   H223    0.950   .     S
C222   C224    1.400   .     S
C224   C225    1.391   .     S
C225   H226    0.949   .     S
C225   C227    1.379   .     S
C227   H228    0.952   .     S
C227   C229    1.355   .     S
C229   H230    0.951   .     S
C231   C232    1.434   .     S
C232   H233    0.949   .     S
C232   C234    1.421   .     S
C234   H235    0.949   .     S
C234   C236    1.388   .     S
C236   C237    1.365   .     S
C237   C238    1.538   .     S
C237   C248    1.380   .     S
C238   C239    1.326   .     S
C238   C246    1.402   .     S
C239   H240    0.951   .     S
C239   C241    1.315   .     S
C241   P16     1.843   1_565 S
C241   C242    1.441   .     S
C242   H243    0.949   .     S
C242   C244    1.430   .     S
C244   H245    0.951   .     S
C244   C246    1.315   .     S
C246   H247    0.949   .     S
C248   C249    1.446   .     S
C249   H250    0.949   .     S
C249   C251    1.293   .     S
C251   H252    0.950   .     S
C251   C253    1.440   .     S
C253   C254    1.384   .     S
C254   C255    1.464   1_556 S
C254   C265    1.362   .     S
C255   C254    1.464   1_554 S
C255   C256    1.352   .     S
C255   C263    1.410   .     S
C256   H257    0.949   .     S
C256   C258    1.417   .     S
C258   C259    1.378   .     S
C259   H260    0.950   .     S
C259   C261    1.430   .     S
C261   H262    0.950   .     S
C261   C263    1.398   .     S
C263   H264    0.948   .     S
C265   C266    1.447   .     S
C266   H267    0.949   1_556 S
C266   C268    1.324   .     S
H267   C266    0.949   1_554 S
C268   H269    0.948   .     S
C268   C270    1.433   .     S
C270   C271    1.372   .     S
C271   C272    1.448   .     S
C272   C273    1.374   .     S
C272   C280    1.367   .     S
C273   H274    0.952   .     S
C273   C275    1.310   .     S
C275   C276    1.403   .     S
C276   H277    0.949   .     S
C276   C278    1.402   .     S
C278   H279    0.948   .     S
C278   C280    1.371   .     S
C280   H281    0.951   .     S
Zn282  O300    1.915   .     S
Zn282  O53     1.810   1_455 S
Zn282  O627    1.892   .     S
Zn283  O304    1.917   .     S
Zn283  O588    1.921   .     S
Zn283  O884    1.910   .     S
Zn283  O339    1.909   .     S
Zn284  O305    1.941   .     S
Zn284  O314    1.909   .     S
Zn284  O330    1.953   .     S
Zn284  O589    1.929   .     S
Ni285  N347    1.928   .     S
Ni285  N348    1.929   .     S
Ni285  N349    1.961   .     S
Ni285  N350    1.943   .     S
Ni286  N351    1.898   .     S
Ni286  N352    1.902   .     S
Ni286  N353    1.881   1_455 S
Ni286  N354    1.875   1_455 S
Ni287  N355    1.927   .     S
Ni287  N356    1.953   .     S
Ni287  N357    1.972   .     S
Ni287  N358    1.930   .     S
P288   O300    1.500   1_655 S
P288   O301    1.531   .     S
P288   O303    1.478   .     S
P288   C369    1.828   .     S
P289   O304    1.513   .     S
P289   O305    1.540   .     S
P289   O306    1.498   .     S
P289   C386    1.808   .     S
P290   O307    1.481   .     S
P290   O308    1.526   .     S
P290   O309    1.558   .     S
P290   C403    1.773   .     S
P291   O310    1.477   .     S
P291   O311    1.624   .     S
P291   O313    1.499   .     S
P291   C420    1.706   .     S
P292   O314    1.489   .     S
P292   O315    1.471   .     S
P292   O316    1.538   .     S
P292   C437    1.794   .     S
P293   O317    1.545   .     S
P293   O319    1.476   .     S
P293   O320    1.533   .     S
P293   C454    1.800   .     S
P294   O321    1.442   .     S
P294   O322    1.497   .     S
P294   O323    1.548   .     S
P294   C471    1.794   .     S
P295   O325    1.523   .     S
P295   O327    1.491   .     S
P295   O328    1.510   1_655 S
P295   C488    1.758   .     S
P296   O330    1.492   1_554 S
P296   O331    1.525   .     S
P296   O333    1.532   .     S
P296   C505    1.777   .     S
P297   O334    1.425   .     S
P297   O335    1.612   .     S
P297   O337    1.567   .     S
P297   C522    1.843   1_565 S
P298   O338    1.501   .     S
P298   O339    1.496   .     S
P298   O340    1.541   .     S
P298   C539    1.780   .     S
P299   O342    1.548   .     S
P299   O344    1.500   .     S
P299   O346    1.532   .     S
P299   C556    1.815   .     S
O300   P288    1.500   1_455 S
O301   H302    0.864   1_655 S
H302   O301    0.864   1_455 S
O307   Zn564   1.921   .     S
O308   Zn565   1.929   .     S
O311   H312    0.865   .     S
O317   H318    0.881   .     S
O322   Zn845   1.910   .     S
O323   H324    0.913   .     S
O325   H326    0.856   .     S
O328   P295    1.510   1_455 S
O328   H329    0.841   .     S
O330   P296    1.492   1_556 S
O331   H332    0.871   1_554 S
H332   O331    0.871   1_556 S
O334   Zn1     1.810   1_455 S
O335   H336    0.844   .     S
O340   H341    0.840   .     S
O342   H343    0.875   .     S
O344   H345    0.839   .     S
O346   Zn563   1.892   .     S
N347   C359    1.380   .     S
N347   C364    1.389   .     S
N348   C376    1.355   .     S
N348   C381    1.425   .     S
N349   C393    1.334   .     S
N349   C398    1.403   .     S
N350   C410    1.404   .     S
N350   C415    1.351   .     S
N351   C427    1.380   .     S
N351   C432    1.404   .     S
N352   C444    1.399   .     S
N352   C449    1.381   .     S
N353   Ni286   1.881   1_655 S
N353   C461    1.424   1_655 S
N353   C466    1.401   .     S
N354   Ni286   1.875   1_655 S
N354   C478    1.431   .     S
N354   C483    1.386   .     S
N355   C495    1.396   .     S
N355   C500    1.401   .     S
N356   C512    1.412   .     S
N356   C517    1.392   .     S
N357   C529    1.367   .     S
N357   C534    1.360   .     S
N358   C546    1.366   .     S
N358   C551    1.408   .     S
C359   C360    1.437   1_455 S
C359   C416    1.393   .     S
C360   C359    1.437   1_655 S
C360   H361    0.949   .     S
C360   C362    1.395   .     S
C362   H363    0.950   .     S
C362   C364    1.419   1_655 S
C364   C365    1.358   .     S
C364   C362    1.419   1_455 S
C365   C366    1.490   .     S
C365   C376    1.411   .     S
C366   C367    1.380   .     S
C366   C374    1.437   .     S
C367   H368    0.951   .     S
C367   C369    1.373   1_455 S
C369   C370    1.375   .     S
C369   C367    1.373   1_655 S
C370   H371    0.950   .     S
C370   C372    1.336   .     S
C372   H373    0.948   .     S
C372   C374    1.347   1_655 S
C374   H375    0.951   .     S
C374   C372    1.347   1_455 S
C376   C377    1.432   .     S
C377   H378    0.950   .     S
C377   C379    1.310   .     S
C379   H380    0.952   .     S
C379   C381    1.468   .     S
C381   C382    1.356   .     S
C382   C383    1.498   .     S
C382   C393    1.362   .     S
C383   C384    1.382   .     S
C383   C391    1.404   .     S
C384   H385    0.950   .     S
C384   C386    1.383   .     S
C386   C387    1.388   .     S
C387   H388    0.949   .     S
C387   C389    1.394   .     S
C389   H390    0.949   .     S
C389   C391    1.406   .     S
C391   H392    0.950   .     S
C393   C394    1.481   .     S
C394   H395    0.951   .     S
C394   C396    1.304   .     S
C396   H397    0.949   .     S
C396   C398    1.442   .     S
C398   C399    1.385   .     S
C399   C400    1.468   .     S
C399   C410    1.380   .     S
C400   C401    1.347   .     S
C400   C408    1.419   .     S
C401   H402    0.950   .     S
C401   C403    1.476   .     S
C403   C404    1.354   .     S
C404   H405    0.951   .     S
C404   C406    1.374   .     S
C406   H407    0.947   .     S
C406   C408    1.403   .     S
C408   H409    0.949   .     S
C410   C411    1.438   .     S
C411   H412    0.950   .     S
C411   C413    1.301   .     S
C413   H414    0.951   .     S
C413   C415    1.440   .     S
C415   C416    1.353   .     S
C416   C417    1.491   .     S
C417   C418    1.312   1_455 S
C417   C425    1.337   1_455 S
C418   C417    1.312   1_655 S
C418   H419    0.950   1_655 S
C418   C420    1.483   .     S
H419   C418    0.950   1_455 S
C420   C421    1.291   .     S
C421   H422    0.948   .     S
C421   C423    1.473   .     S
C423   H424    0.950   .     S
C423   C425    1.394   .     S
C425   C417    1.337   1_655 S
C425   H426    0.949   .     S
C427   C428    1.413   1_556 S
C427   C484    1.373   1_455 S
C428   C427    1.413   1_554 S
C428   H429    0.950   .     S
C428   C430    1.346   1_554 S
C430   C428    1.346   1_556 S
C430   H431    0.950   1_556 S
C430   C432    1.400   .     S
H431   C430    0.950   1_554 S
C432   C433    1.395   .     S
C433   C434    1.463   .     S
C433   C444    1.360   .     S
C434   C435    1.381   .     S
C434   C442    1.410   .     S
C435   H436    0.952   .     S
C435   C437    1.420   .     S
C437   C438    1.383   .     S
C438   H439    0.951   .     S
C438   C440    1.391   .     S
C440   H441    0.950   .     S
C440   C442    1.373   .     S
C442   H443    0.950   .     S
C444   C445    1.418   .     S
C445   H446    0.951   .     S
C445   C447    1.311   .     S
C447   H448    0.950   .     S
C447   C449    1.491   .     S
C449   C450    1.381   .     S
C450   C451    1.477   .     S
C450   C461    1.362   .     S
C451   C452    1.426   .     S
C451   C459    1.379   .     S
C452   H453    0.950   .     S
C452   C454    1.426   .     S
C454   C455    1.339   .     S
C455   H456    0.952   .     S
C455   C457    1.343   .     S
C457   H458    0.950   .     S
C457   C459    1.387   .     S
C459   H460    0.951   .     S
C461   N353    1.424   1_455 S
C461   C462    1.437   1_455 S
C462   C461    1.437   1_655 S
C462   H463    0.948   .     S
C462   C464    1.393   .     S
C464   H465    0.950   .     S
C464   C466    1.387   .     S
C466   C467    1.371   .     S
C467   C468    1.429   .     S
C467   C478    1.451   .     S
C468   C469    1.391   .     S
C468   C476    1.384   .     S
C469   H470    0.948   .     S
C469   C471    1.401   .     S
C471   C472    1.378   .     S
C472   H473    0.951   .     S
C472   C474    1.374   .     S
C474   H475    0.951   .     S
C474   C476    1.427   .     S
C476   H477    0.950   .     S
C478   C479    1.430   .     S
C479   H480    0.950   .     S
C479   C481    1.287   .     S
C481   H482    0.951   .     S
C481   C483    1.400   .     S
C483   C484    1.400   .     S
C484   C427    1.373   1_655 S
C484   C485    1.508   1_556 S
C485   C484    1.508   1_554 S
C485   C486    1.424   .     S
C485   C493    1.436   .     S
C486   H487    0.948   .     S
C486   C488    1.387   .     S
C488   C489    1.371   .     S
C489   H490    0.951   .     S
C489   C491    1.429   .     S
C491   H492    0.950   .     S
C491   C493    1.347   .     S
C493   H494    0.951   .     S
C495   C496    1.436   .     S
C495   C552    1.401   .     S
C496   H497    0.948   .     S
C496   C498    1.365   .     S
C498   H499    0.952   .     S
C498   C500    1.427   .     S
C500   C501    1.436   .     S
C501   C502    1.502   .     S
C501   C512    1.310   .     S
C502   C503    1.374   .     S
C502   C510    1.388   .     S
C503   H504    0.950   .     S
C503   C505    1.400   .     S
C505   C506    1.391   .     S
C506   H507    0.949   .     S
C506   C508    1.379   .     S
C508   H509    0.952   .     S
C508   C510    1.355   .     S
C510   H511    0.951   .     S
C512   C513    1.434   .     S
C513   H514    0.949   .     S
C513   C515    1.421   .     S
C515   H516    0.949   .     S
C515   C517    1.388   .     S
C517   C518    1.365   .     S
C518   C519    1.538   .     S
C518   C529    1.380   .     S
C519   C520    1.326   .     S
C519   C527    1.402   .     S
C520   H521    0.951   .     S
C520   C522    1.315   .     S
C522   P297    1.843   1_545 S
C522   C523    1.441   .     S
C523   H524    0.949   .     S
C523   C525    1.430   .     S
C525   H526    0.951   .     S
C525   C527    1.315   .     S
C527   H528    0.949   .     S
C529   C530    1.446   .     S
C530   H531    0.949   .     S
C530   C532    1.293   .     S
C532   H533    0.950   .     S
C532   C534    1.440   .     S
C534   C535    1.384   .     S
C535   C536    1.464   .     S
C535   C546    1.362   .     S
C536   C537    1.352   .     S
C536   C544    1.410   .     S
C537   H538    0.949   .     S
C537   C539    1.417   .     S
C539   C540    1.378   .     S
C540   H541    0.950   .     S
C540   C542    1.430   .     S
C542   H543    0.950   .     S
C542   C544    1.398   .     S
C544   H545    0.948   .     S
C546   C547    1.447   .     S
C547   H548    0.949   .     S
C547   C549    1.324   .     S
C549   H550    0.948   .     S
C549   C551    1.433   .     S
C551   C552    1.372   .     S
C552   C553    1.448   .     S
C553   C554    1.374   .     S
C553   C561    1.367   .     S
C554   H555    0.952   .     S
C554   C556    1.310   .     S
C556   C557    1.403   .     S
C557   H558    0.949   .     S
C557   C559    1.402   .     S
C559   H560    0.948   .     S
C559   C561    1.371   .     S
C561   H562    0.951   .     S
Zn563  O581    1.915   .     S
Zn563  O889    1.913   .     S
Zn563  O896    1.810   .     S
Zn564  O585    1.917   .     S
Zn564  O620    1.909   .     S
Zn565  O586    1.941   .     S
Zn565  O595    1.909   .     S
Zn565  O611    1.953   .     S
Ni566  N628    1.928   .     S
Ni566  N629    1.929   .     S
Ni566  N630    1.961   .     S
Ni566  N631    1.943   1_565 S
Ni567  N632    1.898   .     S
Ni567  N633    1.902   .     S
Ni567  N634    1.881   .     S
Ni567  N635    1.875   .     S
Ni568  N636    1.927   .     S
Ni568  N637    1.953   .     S
Ni568  N638    1.972   .     S
Ni568  N639    1.930   .     S
P569   O581    1.500   .     S
P569   O582    1.531   .     S
P569   O584    1.478   .     S
P569   C650    1.828   .     S
P570   O585    1.513   .     S
P570   O586    1.540   .     S
P570   O587    1.498   .     S
P570   C667    1.808   .     S
P571   O588    1.481   .     S
P571   O589    1.526   .     S
P571   O590    1.558   .     S
P571   C684    1.773   .     S
P572   O591    1.477   .     S
P572   O592    1.624   1_556 S
P572   O594    1.499   .     S
P572   C701    1.706   .     S
P573   O595    1.489   .     S
P573   O596    1.471   .     S
P573   O597    1.538   .     S
P573   C718    1.794   .     S
P574   O598    1.545   .     S
P574   O600    1.476   .     S
P574   O601    1.533   .     S
P574   C735    1.800   .     S
P575   O602    1.442   .     S
P575   O603    1.497   .     S
P575   O604    1.548   .     S
P575   C752    1.794   .     S
P576   O606    1.523   .     S
P576   O608    1.491   .     S
P576   O609    1.510   .     S
P576   C769    1.758   .     S
P577   O611    1.492   .     S
P577   O612    1.525   .     S
P577   O614    1.532   .     S
P577   C786    1.777   .     S
P578   O615    1.425   .     S
P578   O616    1.612   .     S
P578   O618    1.567   .     S
P578   C803    1.843   .     S
P579   O619    1.501   .     S
P579   O620    1.496   .     S
P579   O621    1.541   .     S
P579   C820    1.780   .     S
P580   O623    1.548   .     S
P580   O625    1.500   .     S
P580   O627    1.532   .     S
P580   C837    1.815   1_545 S
O582   H583    0.864   .     S
O592   P572    1.624   1_554 S
O592   H593    0.865   .     S
O598   H599    0.881   .     S
O604   H605    0.913   .     S
O606   H607    0.856   .     S
O608   Zn844   1.913   .     S
O609   H610    0.841   .     S
O612   H613    0.871   .     S
O615   Zn844   1.810   .     S
O616   H617    0.844   .     S
O621   H622    0.840   .     S
O623   H624    0.875   .     S
O625   H626    0.839   .     S
N628   C640    1.380   1_565 S
N628   C645    1.389   .     S
N629   C657    1.355   .     S
N629   C662    1.425   .     S
N630   C674    1.334   .     S
N630   C679    1.403   .     S
N631   Ni566   1.943   1_545 S
N631   C691    1.404   1_554 S
N631   C696    1.351   1_554 S
N632   C708    1.380   .     S
N632   C713    1.404   .     S
N633   C725    1.399   .     S
N633   C730    1.381   .     S
N634   C742    1.424   .     S
N634   C747    1.401   .     S
N635   C759    1.431   .     S
N635   C764    1.386   .     S
N636   C776    1.396   .     S
N636   C781    1.401   .     S
N637   C793    1.412   .     S
N637   C798    1.392   .     S
N638   C810    1.367   .     S
N638   C815    1.360   .     S
N639   C827    1.366   .     S
N639   C832    1.408   .     S
C640   N628    1.380   1_545 S
C640   C641    1.437   .     S
C640   C697    1.393   .     S
C641   H642    0.949   .     S
C641   C643    1.395   1_545 S
C643   C641    1.395   1_565 S
C643   H644    0.950   .     S
C643   C645    1.419   .     S
C645   C646    1.358   .     S
C646   C647    1.490   .     S
C646   C657    1.411   .     S
C647   C648    1.380   .     S
C647   C655    1.437   .     S
C648   H649    0.951   .     S
C648   C650    1.373   .     S
C650   C651    1.375   .     S
C651   H652    0.950   .     S
C651   C653    1.336   .     S
C653   H654    0.948   1_565 S
C653   C655    1.347   .     S
H654   C653    0.948   1_545 S
C655   H656    0.951   1_565 S
H656   C655    0.951   1_545 S
C657   C658    1.432   .     S
C658   H659    0.950   .     S
C658   C660    1.310   .     S
C660   H661    0.952   .     S
C660   C662    1.468   .     S
C662   C663    1.356   .     S
C663   C664    1.498   .     S
C663   C674    1.362   .     S
C664   C665    1.382   .     S
C664   C672    1.404   1_565 S
C665   H666    0.950   .     S
C665   C667    1.383   .     S
C667   C668    1.388   .     S
C668   H669    0.949   .     S
C668   C670    1.394   1_565 S
C670   C668    1.394   1_545 S
C670   H671    0.949   .     S
C670   C672    1.406   .     S
C672   C664    1.404   1_545 S
C672   H673    0.950   .     S
C674   C675    1.481   .     S
C675   H676    0.951   .     S
C675   C677    1.304   .     S
C677   H678    0.949   .     S
C677   C679    1.442   .     S
C679   C680    1.385   1_554 S
C680   C679    1.385   1_556 S
C680   C681    1.468   1_565 S
C680   C691    1.380   1_565 S
C681   C680    1.468   1_545 S
C681   C682    1.347   .     S
C681   C689    1.419   1_545 S
C682   H683    0.950   .     S
C682   C684    1.476   .     S
C684   C685    1.354   .     S
C685   H686    0.951   .     S
C685   C687    1.374   1_545 S
C687   C685    1.374   1_565 S
C687   H688    0.947   .     S
C687   C689    1.403   .     S
C689   C681    1.419   1_565 S
C689   H690    0.949   .     S
C691   N631    1.404   1_556 S
C691   C692    1.438   .     S
C691   C680    1.380   1_545 S
C692   H693    0.950   .     S
C692   C694    1.301   .     S
C694   H695    0.951   .     S
C694   C696    1.440   .     S
C696   N631    1.351   1_556 S
C696   C697    1.353   1_556 S
C697   C698    1.491   1_554 S
C697   C696    1.353   1_554 S
C698   C697    1.491   1_556 S
C698   C699    1.312   .     S
C698   C706    1.337   .     S
C699   H700    0.950   1_556 S
C699   C701    1.483   .     S
H700   C699    0.950   1_554 S
C701   C702    1.291   .     S
C702   H703    0.948   .     S
C702   C704    1.473   .     S
C704   H705    0.950   1_545 S
C704   C706    1.394   .     S
H705   C704    0.950   1_565 S
C706   H707    0.949   1_545 S
H707   C706    0.949   1_565 S
C708   C709    1.413   .     S
C708   C765    1.373   .     S
C709   H710    0.950   .     S
C709   C711    1.346   .     S
C711   H712    0.950   .     S
C711   C713    1.400   .     S
C713   C714    1.395   .     S
C714   C715    1.463   .     S
C714   C725    1.360   .     S
C715   C716    1.381   .     S
C715   C723    1.410   .     S
C716   H717    0.952   .     S
C716   C718    1.420   1_545 S
C718   C719    1.383   1_565 S
C718   C716    1.420   1_565 S
C719   C718    1.383   1_545 S
C719   H720    0.951   1_545 S
C719   C721    1.391   .     S
H720   C719    0.951   1_565 S
C721   H722    0.950   .     S
C721   C723    1.373   .     S
C723   H724    0.950   .     S
C725   C726    1.418   .     S
C726   H727    0.951   .     S
C726   C728    1.311   .     S
C728   H729    0.950   .     S
C728   C730    1.491   .     S
C730   C731    1.381   .     S
C731   C732    1.477   .     S
C731   C742    1.362   .     S
C732   C733    1.426   .     S
C732   C740    1.379   .     S
C733   H734    0.950   .     S
C733   C735    1.426   .     S
C735   C736    1.339   .     S
C736   H737    0.952   .     S
C736   C738    1.343   .     S
C738   H739    0.950   .     S
C738   C740    1.387   .     S
C740   H741    0.951   .     S
C742   C743    1.437   .     S
C743   H744    0.948   .     S
C743   C745    1.393   .     S
C745   H746    0.950   .     S
C745   C747    1.387   .     S
C747   C748    1.371   .     S
C748   C749    1.429   .     S
C748   C759    1.451   .     S
C749   C750    1.391   .     S
C749   C757    1.384   .     S
C750   H751    0.948   1_545 S
C750   C752    1.401   1_545 S
H751   C750    0.948   1_565 S
C752   C753    1.378   1_565 S
C752   C750    1.401   1_565 S
C753   C752    1.378   1_545 S
C753   H754    0.951   1_545 S
C753   C755    1.374   .     S
H754   C753    0.951   1_565 S
C755   H756    0.951   .     S
C755   C757    1.427   .     S
C757   H758    0.950   .     S
C759   C760    1.430   .     S
C760   H761    0.950   .     S
C760   C762    1.287   .     S
C762   H763    0.951   .     S
C762   C764    1.400   .     S
C764   C765    1.400   .     S
C765   C766    1.508   .     S
C766   C767    1.424   .     S
C766   C774    1.436   .     S
C767   H768    0.948   .     S
C767   C769    1.387   .     S
C769   C770    1.371   .     S
C770   H771    0.951   .     S
C770   C772    1.429   .     S
C772   H773    0.950   .     S
C772   C774    1.347   .     S
C774   H775    0.951   .     S
C776   C777    1.436   .     S
C776   C833    1.401   .     S
C777   H778    0.948   .     S
C777   C779    1.365   .     S
C779   H780    0.952   .     S
C779   C781    1.427   .     S
C781   C782    1.436   .     S
C782   C783    1.502   .     S
C782   C793    1.310   .     S
C783   C784    1.374   .     S
C783   C791    1.388   .     S
C784   H785    0.950   .     S
C784   C786    1.400   .     S
C786   C787    1.391   .     S
C787   H788    0.949   .     S
C787   C789    1.379   .     S
C789   H790    0.952   .     S
C789   C791    1.355   .     S
C791   H792    0.951   .     S
C793   C794    1.434   .     S
C794   H795    0.949   .     S
C794   C796    1.421   .     S
C796   H797    0.949   .     S
C796   C798    1.388   .     S
C798   C799    1.365   .     S
C799   C800    1.538   .     S
C799   C810    1.380   .     S
C800   C801    1.326   .     S
C800   C808    1.402   .     S
C801   H802    0.951   .     S
C801   C803    1.315   .     S
C803   C804    1.441   .     S
C804   H805    0.949   .     S
C804   C806    1.430   .     S
C806   H807    0.951   .     S
C806   C808    1.315   .     S
C808   H809    0.949   .     S
C810   C811    1.446   .     S
C811   H812    0.949   .     S
C811   C813    1.293   .     S
C813   H814    0.950   .     S
C813   C815    1.440   .     S
C815   C816    1.384   .     S
C816   C817    1.464   1_556 S
C816   C827    1.362   .     S
C817   C816    1.464   1_554 S
C817   C818    1.352   .     S
C817   C825    1.410   .     S
C818   H819    0.949   .     S
C818   C820    1.417   .     S
C820   C821    1.378   .     S
C821   H822    0.950   .     S
C821   C823    1.430   .     S
C823   H824    0.950   .     S
C823   C825    1.398   .     S
C825   H826    0.948   .     S
C827   C828    1.447   .     S
C828   H829    0.949   1_556 S
C828   C830    1.324   .     S
H829   C828    0.949   1_554 S
C830   H831    0.948   .     S
C830   C832    1.433   .     S
C832   C833    1.372   .     S
C833   C834    1.448   .     S
C834   C835    1.374   .     S
C834   C842    1.367   .     S
C835   H836    0.952   .     S
C835   C837    1.310   .     S
C837   P580    1.815   1_565 S
C837   C838    1.403   .     S
C838   H839    0.949   .     S
C838   C840    1.402   .     S
C840   H841    0.948   .     S
C840   C842    1.371   .     S
C842   H843    0.951   .     S
Zn844  O862    1.915   .     S
Zn845  O866    1.917   .     S
Zn845  O901    1.909   .     S
Zn846  O867    1.941   .     S
Zn846  O876    1.909   .     S
Zn846  O892    1.953   .     S
Ni847  N909    1.928   .     S
Ni847  N910    1.929   .     S
Ni847  N911    1.961   .     S
Ni847  N912    1.943   1_545 S
Ni848  N913    1.898   .     S
Ni848  N914    1.902   .     S
Ni848  N915    1.881   .     S
Ni848  N916    1.875   .     S
Ni849  N917    1.927   .     S
Ni849  N918    1.953   .     S
Ni849  N919    1.972   .     S
Ni849  N920    1.930   .     S
P850   O862    1.500   .     S
P850   O863    1.531   .     S
P850   O865    1.478   .     S
P850   C931    1.828   .     S
P851   O866    1.513   .     S
P851   O867    1.540   .     S
P851   O868    1.498   .     S
P851   C948    1.808   .     S
P852   O869    1.481   .     S
P852   O870    1.526   .     S
P852   O871    1.558   .     S
P852   C965    1.773   .     S
P853   O872    1.477   .     S
P853   O873    1.624   .     S
P853   O875    1.499   .     S
P853   C982    1.706   .     S
P854   O876    1.489   .     S
P854   O877    1.471   .     S
P854   O878    1.538   .     S
P854   C999    1.794   .     S
P855   O879    1.545   .     S
P855   O881    1.476   .     S
P855   O882    1.533   .     S
P855   C1016   1.800   .     S
P856   O883    1.442   .     S
P856   O884    1.497   .     S
P856   O885    1.548   .     S
P856   C1033   1.794   .     S
P857   O887    1.523   .     S
P857   O889    1.491   .     S
P857   O890    1.510   .     S
P857   C1050   1.758   .     S
P858   O892    1.492   1_554 S
P858   O893    1.525   .     S
P858   O895    1.532   .     S
P858   C1067   1.777   .     S
P859   O896    1.425   .     S
P859   O897    1.612   .     S
P859   O899    1.567   .     S
P859   C1084   1.843   .     S
P860   O900    1.501   .     S
P860   O901    1.496   .     S
P860   O902    1.541   .     S
P860   C1101   1.780   .     S
P861   O904    1.548   .     S
P861   O906    1.500   .     S
P861   O908    1.532   .     S
P861   C1118   1.815   1_565 S
O863   H864    0.864   .     S
O873   H874    0.865   .     S
O879   H880    0.881   .     S
O885   H886    0.913   .     S
O887   H888    0.856   .     S
O890   H891    0.841   .     S
O892   P858    1.492   1_556 S
O893   H894    0.871   1_554 S
H894   O893    0.871   1_556 S
O897   H898    0.844   .     S
O902   H903    0.840   .     S
O904   H905    0.875   .     S
O906   H907    0.839   .     S
N909   C921    1.380   1_545 S
N909   C926    1.389   .     S
N910   C938    1.355   .     S
N910   C943    1.425   .     S
N911   C955    1.334   .     S
N911   C960    1.403   .     S
N912   Ni847   1.943   1_565 S
N912   C972    1.404   .     S
N912   C977    1.351   .     S
N913   C989    1.380   .     S
N913   C994    1.404   .     S
N914   C1006   1.399   .     S
N914   C1011   1.381   .     S
N915   C1023   1.424   .     S
N915   C1028   1.401   .     S
N916   C1040   1.431   .     S
N916   C1045   1.386   .     S
N917   C1057   1.396   .     S
N917   C1062   1.401   .     S
N918   C1074   1.412   .     S
N918   C1079   1.392   .     S
N919   C1091   1.367   .     S
N919   C1096   1.360   .     S
N920   C1108   1.366   .     S
N920   C1113   1.408   .     S
C921   N909    1.380   1_565 S
C921   C922    1.437   .     S
C921   C978    1.393   .     S
C922   H923    0.949   .     S
C922   C924    1.395   1_565 S
C924   C922    1.395   1_545 S
C924   H925    0.950   .     S
C924   C926    1.419   .     S
C926   C927    1.358   .     S
C927   C928    1.490   .     S
C927   C938    1.411   .     S
C928   C929    1.380   .     S
C928   C936    1.437   .     S
C929   H930    0.951   .     S
C929   C931    1.373   .     S
C931   C932    1.375   .     S
C932   H933    0.950   .     S
C932   C934    1.336   .     S
C934   H935    0.948   1_545 S
C934   C936    1.347   .     S
H935   C934    0.948   1_565 S
C936   H937    0.951   1_545 S
H937   C936    0.951   1_565 S
C938   C939    1.432   .     S
C939   H940    0.950   .     S
C939   C941    1.310   .     S
C941   H942    0.952   .     S
C941   C943    1.468   .     S
C943   C944    1.356   .     S
C944   C945    1.498   .     S
C944   C955    1.362   .     S
C945   C946    1.382   .     S
C945   C953    1.404   1_545 S
C946   H947    0.950   .     S
C946   C948    1.383   .     S
C948   C949    1.388   .     S
C949   H950    0.949   .     S
C949   C951    1.394   1_545 S
C951   C949    1.394   1_565 S
C951   H952    0.949   .     S
C951   C953    1.406   .     S
C953   C945    1.404   1_565 S
C953   H954    0.950   .     S
C955   C956    1.481   .     S
C956   H957    0.951   .     S
C956   C958    1.304   .     S
C958   H959    0.949   .     S
C958   C960    1.442   .     S
C960   C961    1.385   .     S
C961   C962    1.468   1_545 S
C961   C972    1.380   1_545 S
C962   C961    1.468   1_565 S
C962   C963    1.347   .     S
C962   C970    1.419   1_565 S
C963   H964    0.950   .     S
C963   C965    1.476   .     S
C965   C966    1.354   .     S
C966   H967    0.951   .     S
C966   C968    1.374   1_565 S
C968   C966    1.374   1_545 S
C968   H969    0.947   .     S
C968   C970    1.403   .     S
C970   C962    1.419   1_545 S
C970   H971    0.949   .     S
C972   C973    1.438   .     S
C972   C961    1.380   1_565 S
C973   H974    0.950   .     S
C973   C975    1.301   .     S
C975   H976    0.951   .     S
C975   C977    1.440   .     S
C977   C978    1.353   .     S
C978   C979    1.491   .     S
C979   C980    1.312   .     S
C979   C987    1.337   .     S
C980   H981    0.950   .     S
C980   C982    1.483   .     S
C982   C983    1.291   .     S
C983   H984    0.948   .     S
C983   C985    1.473   .     S
C985   H986    0.950   1_565 S
C985   C987    1.394   .     S
H986   C985    0.950   1_545 S
C987   H988    0.949   1_565 S
H988   C987    0.949   1_545 S
C989   C990    1.413   1_556 S
C989   C1046   1.373   .     S
C990   C989    1.413   1_554 S
C990   H991    0.950   .     S
C990   C992    1.346   1_554 S
C992   C990    1.346   1_556 S
C992   H993    0.950   1_556 S
C992   C994    1.400   .     S
H993   C992    0.950   1_554 S
C994   C995    1.395   .     S
C995   C996    1.463   .     S
C995   C1006   1.360   .     S
C996   C997    1.381   .     S
C996   C1004   1.410   .     S
C997   H998    0.952   .     S
C997   C999    1.420   1_565 S
C999   C1000   1.383   1_545 S
C999   C997    1.420   1_545 S
C1000  C999    1.383   1_565 S
C1000  H1001   0.951   1_565 S
C1000  C1002   1.391   .     S
H1001  C1000   0.951   1_545 S
C1002  H1003   0.950   .     S
C1002  C1004   1.373   .     S
C1004  H1005   0.950   .     S
C1006  C1007   1.418   .     S
C1007  H1008   0.951   .     S
C1007  C1009   1.311   .     S
C1009  H1010   0.950   .     S
C1009  C1011   1.491   .     S
C1011  C1012   1.381   .     S
C1012  C1013   1.477   .     S
C1012  C1023   1.362   .     S
C1013  C1014   1.426   .     S
C1013  C1021   1.379   .     S
C1014  H1015   0.950   .     S
C1014  C1016   1.426   .     S
C1016  C1017   1.339   .     S
C1017  H1018   0.952   .     S
C1017  C1019   1.343   .     S
C1019  H1020   0.950   .     S
C1019  C1021   1.387   .     S
C1021  H1022   0.951   .     S
C1023  C1024   1.437   .     S
C1024  H1025   0.948   .     S
C1024  C1026   1.393   .     S
C1026  H1027   0.950   .     S
C1026  C1028   1.387   .     S
C1028  C1029   1.371   .     S
C1029  C1030   1.429   .     S
C1029  C1040   1.451   .     S
C1030  C1031   1.391   .     S
C1030  C1038   1.384   .     S
C1031  H1032   0.948   1_565 S
C1031  C1033   1.401   1_565 S
H1032  C1031   0.948   1_545 S
C1033  C1034   1.378   1_545 S
C1033  C1031   1.401   1_545 S
C1034  C1033   1.378   1_565 S
C1034  H1035   0.951   1_565 S
C1034  C1036   1.374   .     S
H1035  C1034   0.951   1_545 S
C1036  H1037   0.951   .     S
C1036  C1038   1.427   .     S
C1038  H1039   0.950   .     S
C1040  C1041   1.430   .     S
C1041  H1042   0.950   .     S
C1041  C1043   1.287   .     S
C1043  H1044   0.951   .     S
C1043  C1045   1.400   .     S
C1045  C1046   1.400   .     S
C1046  C1047   1.508   1_556 S
C1047  C1046   1.508   1_554 S
C1047  C1048   1.424   .     S
C1047  C1055   1.436   .     S
C1048  H1049   0.948   .     S
C1048  C1050   1.387   .     S
C1050  C1051   1.371   .     S
C1051  H1052   0.951   .     S
C1051  C1053   1.429   .     S
C1053  H1054   0.950   .     S
C1053  C1055   1.347   .     S
C1055  H1056   0.951   .     S
C1057  C1058   1.436   .     S
C1057  C1114   1.401   .     S
C1058  H1059   0.948   .     S
C1058  C1060   1.365   .     S
C1060  H1061   0.952   .     S
C1060  C1062   1.427   .     S
C1062  C1063   1.436   .     S
C1063  C1064   1.502   .     S
C1063  C1074   1.310   .     S
C1064  C1065   1.374   .     S
C1064  C1072   1.388   .     S
C1065  H1066   0.950   .     S
C1065  C1067   1.400   .     S
C1067  C1068   1.391   .     S
C1068  H1069   0.949   .     S
C1068  C1070   1.379   .     S
C1070  H1071   0.952   .     S
C1070  C1072   1.355   .     S
C1072  H1073   0.951   .     S
C1074  C1075   1.434   .     S
C1075  H1076   0.949   .     S
C1075  C1077   1.421   .     S
C1077  H1078   0.949   .     S
C1077  C1079   1.388   .     S
C1079  C1080   1.365   .     S
C1080  C1081   1.538   .     S
C1080  C1091   1.380   .     S
C1081  C1082   1.326   .     S
C1081  C1089   1.402   .     S
C1082  H1083   0.951   .     S
C1082  C1084   1.315   .     S
C1084  C1085   1.441   .     S
C1085  H1086   0.949   .     S
C1085  C1087   1.430   .     S
C1087  H1088   0.951   .     S
C1087  C1089   1.315   .     S
C1089  H1090   0.949   .     S
C1091  C1092   1.446   .     S
C1092  H1093   0.949   .     S
C1092  C1094   1.293   .     S
C1094  H1095   0.950   .     S
C1094  C1096   1.440   .     S
C1096  C1097   1.384   .     S
C1097  C1098   1.464   .     S
C1097  C1108   1.362   .     S
C1098  C1099   1.352   .     S
C1098  C1106   1.410   .     S
C1099  H1100   0.949   .     S
C1099  C1101   1.417   .     S
C1101  C1102   1.378   .     S
C1102  H1103   0.950   .     S
C1102  C1104   1.430   .     S
C1104  H1105   0.950   .     S
C1104  C1106   1.398   .     S
C1106  H1107   0.948   .     S
C1108  C1109   1.447   .     S
C1109  H1110   0.949   .     S
C1109  C1111   1.324   .     S
C1111  H1112   0.948   .     S
C1111  C1113   1.433   .     S
C1113  C1114   1.372   .     S
C1114  C1115   1.448   .     S
C1115  C1116   1.374   .     S
C1115  C1123   1.367   .     S
C1116  H1117   0.952   .     S
C1116  C1118   1.310   .     S
C1118  P861    1.815   1_545 S
C1118  C1119   1.403   .     S
C1119  H1120   0.949   .     S
C1119  C1121   1.402   .     S
C1121  H1122   0.948   .     S
C1121  C1123   1.371   .     S
C1123  H1124   0.951   .     S
