data_SALHEW_FSR
_audit_creation_date              2024-06-11
_audit_creation_method            'Materials Studio'
_symmetry_space_group_name_H-M    'P1'
_symmetry_Int_Tables_number       1
_symmetry_cell_setting            triclinic
loop_
_symmetry_equiv_pos_as_xyz
  x,y,z
_cell_length_a                    10.1847
_cell_length_b                    10.1847
_cell_length_c                    43.5417
_cell_angle_alpha                 90.0000
_cell_angle_beta                  90.0000
_cell_angle_gamma                 90.0000
loop_
_atom_site_label
_atom_site_type_symbol
_atom_site_fract_x
_atom_site_fract_y
_atom_site_fract_z
_atom_site_U_iso_or_equiv
_atom_site_adp_type
_atom_site_occupancy
C1     C     0.62230   0.36410   0.95471   0.00000  Uiso   1.00
C2     C     0.57360   0.41830   0.92551   0.00000  Uiso   1.00
C3     C     0.56500   0.55270   0.91945   0.00000  Uiso   1.00
H4     H     0.58510   0.61360   0.93530   0.00000  Uiso   1.00
C5     C     0.52760   0.59950   0.89064   0.00000  Uiso   1.00
H6     H     0.52230   0.69140   0.88710   0.00000  Uiso   1.00
C7     C     0.49710   0.50990   0.86644   0.00000  Uiso   1.00
C8     C     0.50680   0.37330   0.87294   0.00000  Uiso   1.00
H9     H     0.48730   0.31180   0.85720   0.00000  Uiso   1.00
C10    C     0.54480   0.32620   0.90223   0.00000  Uiso   1.00
H11    H     0.55070   0.23460   0.90610   0.00000  Uiso   1.00
C12    C     0.45680   0.55790   0.83653   0.00000  Uiso   1.00
C13    C     0.46160   0.69090   0.82842   0.00000  Uiso   1.00
H14    H     0.49700   0.75120   0.84290   0.00000  Uiso   1.00
C15    C     0.41830   0.73880   0.80097   0.00000  Uiso   1.00
H16    H     0.42630   0.82980   0.79670   0.00000  Uiso   1.00
C17    C     0.36210   0.65500   0.77905   0.00000  Uiso   1.00
C18    C     0.35710   0.51860   0.78576   0.00000  Uiso   1.00
H19    H     0.32280   0.45900   0.77100   0.00000  Uiso   1.00
C20    C     0.40280   0.47210   0.81406   0.00000  Uiso   1.00
H21    H     0.39760   0.38080   0.81840   0.00000  Uiso   1.00
O22    O     0.60193   0.23948   0.96046   0.00000  Uiso   1.00
O23    O     0.67250   0.43481   0.97316   0.00000  Uiso   1.00
C24    C     0.87770   0.13590   0.95471   0.00000  Uiso   1.00
C25    C     0.92640   0.08170   0.92551   0.00000  Uiso   1.00
C26    C     0.93500   0.94730   0.91945   0.00000  Uiso   1.00
H27    H     0.91490   0.88640   0.93530   0.00000  Uiso   1.00
C28    C     0.97240   0.90050   0.89064   0.00000  Uiso   1.00
H29    H     0.97770   0.80860   0.88710   0.00000  Uiso   1.00
C30    C     0.00290   0.99010   0.86644   0.00000  Uiso   1.00
C31    C     0.99320   0.12670   0.87294   0.00000  Uiso   1.00
H32    H     0.01270   0.18820   0.85720   0.00000  Uiso   1.00
C33    C     0.95520   0.17380   0.90223   0.00000  Uiso   1.00
H34    H     0.94930   0.26540   0.90610   0.00000  Uiso   1.00
C35    C     0.04320   0.94210   0.83653   0.00000  Uiso   1.00
C36    C     0.03840   0.80910   0.82842   0.00000  Uiso   1.00
H37    H     0.00300   0.74880   0.84290   0.00000  Uiso   1.00
C38    C     0.08170   0.76120   0.80097   0.00000  Uiso   1.00
H39    H     0.07370   0.67020   0.79670   0.00000  Uiso   1.00
C40    C     0.13790   0.84500   0.77905   0.00000  Uiso   1.00
C41    C     0.14290   0.98140   0.78576   0.00000  Uiso   1.00
H42    H     0.17720   0.04100   0.77100   0.00000  Uiso   1.00
C43    C     0.09720   0.02790   0.81406   0.00000  Uiso   1.00
H44    H     0.10240   0.11920   0.81840   0.00000  Uiso   1.00
O45    O     0.89807   0.26052   0.96046   0.00000  Uiso   1.00
O46    O     0.82750   0.06519   0.97316   0.00000  Uiso   1.00
C47    C     0.13590   0.62230   0.95471   0.00000  Uiso   1.00
C48    C     0.08170   0.57360   0.92551   0.00000  Uiso   1.00
C49    C     0.94730   0.56500   0.91945   0.00000  Uiso   1.00
H50    H     0.88640   0.58510   0.93530   0.00000  Uiso   1.00
C51    C     0.90050   0.52760   0.89064   0.00000  Uiso   1.00
H52    H     0.80860   0.52230   0.88710   0.00000  Uiso   1.00
C53    C     0.99010   0.49710   0.86644   0.00000  Uiso   1.00
C54    C     0.12670   0.50680   0.87294   0.00000  Uiso   1.00
H55    H     0.18820   0.48730   0.85720   0.00000  Uiso   1.00
C56    C     0.17380   0.54480   0.90223   0.00000  Uiso   1.00
H57    H     0.26540   0.55070   0.90610   0.00000  Uiso   1.00
C58    C     0.94210   0.45680   0.83653   0.00000  Uiso   1.00
C59    C     0.80910   0.46160   0.82842   0.00000  Uiso   1.00
H60    H     0.74880   0.49700   0.84290   0.00000  Uiso   1.00
C61    C     0.76120   0.41830   0.80097   0.00000  Uiso   1.00
H62    H     0.67020   0.42630   0.79670   0.00000  Uiso   1.00
C63    C     0.84500   0.36210   0.77905   0.00000  Uiso   1.00
C64    C     0.98140   0.35710   0.78576   0.00000  Uiso   1.00
H65    H     0.04100   0.32280   0.77100   0.00000  Uiso   1.00
C66    C     0.02790   0.40280   0.81406   0.00000  Uiso   1.00
H67    H     0.11920   0.39760   0.81840   0.00000  Uiso   1.00
O68    O     0.26052   0.60193   0.96046   0.00000  Uiso   1.00
O69    O     0.06519   0.67250   0.97316   0.00000  Uiso   1.00
C70    C     0.36410   0.87770   0.95471   0.00000  Uiso   1.00
C71    C     0.41830   0.92640   0.92551   0.00000  Uiso   1.00
C72    C     0.55270   0.93500   0.91945   0.00000  Uiso   1.00
H73    H     0.61360   0.91490   0.93530   0.00000  Uiso   1.00
C74    C     0.59950   0.97240   0.89064   0.00000  Uiso   1.00
H75    H     0.69140   0.97770   0.88710   0.00000  Uiso   1.00
C76    C     0.50990   0.00290   0.86644   0.00000  Uiso   1.00
C77    C     0.37330   0.99320   0.87294   0.00000  Uiso   1.00
H78    H     0.31180   0.01270   0.85720   0.00000  Uiso   1.00
C79    C     0.32620   0.95520   0.90223   0.00000  Uiso   1.00
H80    H     0.23460   0.94930   0.90610   0.00000  Uiso   1.00
C81    C     0.55790   0.04320   0.83653   0.00000  Uiso   1.00
C82    C     0.69090   0.03840   0.82842   0.00000  Uiso   1.00
H83    H     0.75120   0.00300   0.84290   0.00000  Uiso   1.00
C84    C     0.73880   0.08170   0.80097   0.00000  Uiso   1.00
H85    H     0.82980   0.07370   0.79670   0.00000  Uiso   1.00
C86    C     0.65500   0.13790   0.77905   0.00000  Uiso   1.00
C87    C     0.51860   0.14290   0.78576   0.00000  Uiso   1.00
H88    H     0.45900   0.17720   0.77100   0.00000  Uiso   1.00
C89    C     0.47210   0.09720   0.81406   0.00000  Uiso   1.00
H90    H     0.38080   0.10240   0.81840   0.00000  Uiso   1.00
O91    O     0.23948   0.89807   0.96046   0.00000  Uiso   1.00
O92    O     0.43481   0.82750   0.97316   0.00000  Uiso   1.00
C93    C     0.37770   0.86410   0.54529   0.00000  Uiso   1.00
C94    C     0.42640   0.91830   0.57449   0.00000  Uiso   1.00
C95    C     0.43500   0.05270   0.58055   0.00000  Uiso   1.00
H96    H     0.41490   0.11360   0.56470   0.00000  Uiso   1.00
C97    C     0.47240   0.09950   0.60936   0.00000  Uiso   1.00
H98    H     0.47770   0.19140   0.61290   0.00000  Uiso   1.00
C99    C     0.50290   0.00990   0.63356   0.00000  Uiso   1.00
C100   C     0.49320   0.87330   0.62706   0.00000  Uiso   1.00
H101   H     0.51270   0.81180   0.64280   0.00000  Uiso   1.00
C102   C     0.45520   0.82620   0.59777   0.00000  Uiso   1.00
H103   H     0.44930   0.73460   0.59390   0.00000  Uiso   1.00
C104   C     0.54320   0.05790   0.66347   0.00000  Uiso   1.00
C105   C     0.53840   0.19090   0.67158   0.00000  Uiso   1.00
H106   H     0.50300   0.25120   0.65710   0.00000  Uiso   1.00
C107   C     0.58170   0.23880   0.69903   0.00000  Uiso   1.00
H108   H     0.57370   0.32980   0.70330   0.00000  Uiso   1.00
C109   C     0.63790   0.15500   0.72095   0.00000  Uiso   1.00
C110   C     0.64290   0.01860   0.71424   0.00000  Uiso   1.00
H111   H     0.67720   0.95900   0.72900   0.00000  Uiso   1.00
C112   C     0.59720   0.97210   0.68594   0.00000  Uiso   1.00
H113   H     0.60240   0.88080   0.68160   0.00000  Uiso   1.00
O114   O     0.39807   0.73948   0.53954   0.00000  Uiso   1.00
O115   O     0.32750   0.93481   0.52684   0.00000  Uiso   1.00
C116   C     0.12230   0.63590   0.54529   0.00000  Uiso   1.00
C117   C     0.07360   0.58170   0.57449   0.00000  Uiso   1.00
C118   C     0.06500   0.44730   0.58055   0.00000  Uiso   1.00
H119   H     0.08510   0.38640   0.56470   0.00000  Uiso   1.00
C120   C     0.02760   0.40050   0.60936   0.00000  Uiso   1.00
H121   H     0.02230   0.30860   0.61290   0.00000  Uiso   1.00
C122   C     0.99710   0.49010   0.63356   0.00000  Uiso   1.00
C123   C     0.00680   0.62670   0.62706   0.00000  Uiso   1.00
H124   H     0.98730   0.68820   0.64280   0.00000  Uiso   1.00
C125   C     0.04480   0.67380   0.59777   0.00000  Uiso   1.00
H126   H     0.05070   0.76540   0.59390   0.00000  Uiso   1.00
C127   C     0.95680   0.44210   0.66347   0.00000  Uiso   1.00
C128   C     0.96160   0.30910   0.67158   0.00000  Uiso   1.00
H129   H     0.99700   0.24880   0.65710   0.00000  Uiso   1.00
C130   C     0.91830   0.26120   0.69903   0.00000  Uiso   1.00
H131   H     0.92630   0.17020   0.70330   0.00000  Uiso   1.00
C132   C     0.86210   0.34500   0.72095   0.00000  Uiso   1.00
C133   C     0.85710   0.48140   0.71424   0.00000  Uiso   1.00
H134   H     0.82280   0.54100   0.72900   0.00000  Uiso   1.00
C135   C     0.90280   0.52790   0.68594   0.00000  Uiso   1.00
H136   H     0.89760   0.61920   0.68160   0.00000  Uiso   1.00
O137   O     0.10193   0.76052   0.53954   0.00000  Uiso   1.00
O138   O     0.17250   0.56519   0.52684   0.00000  Uiso   1.00
C139   C     0.86410   0.12230   0.54529   0.00000  Uiso   1.00
C140   C     0.91830   0.07360   0.57449   0.00000  Uiso   1.00
C141   C     0.05270   0.06500   0.58055   0.00000  Uiso   1.00
H142   H     0.11360   0.08510   0.56470   0.00000  Uiso   1.00
C143   C     0.09950   0.02760   0.60936   0.00000  Uiso   1.00
H144   H     0.19140   0.02230   0.61290   0.00000  Uiso   1.00
C145   C     0.00990   0.99710   0.63356   0.00000  Uiso   1.00
C146   C     0.87330   0.00680   0.62706   0.00000  Uiso   1.00
H147   H     0.81180   0.98730   0.64280   0.00000  Uiso   1.00
C148   C     0.82620   0.04480   0.59777   0.00000  Uiso   1.00
H149   H     0.73460   0.05070   0.59390   0.00000  Uiso   1.00
C150   C     0.05790   0.95680   0.66347   0.00000  Uiso   1.00
C151   C     0.19090   0.96160   0.67158   0.00000  Uiso   1.00
H152   H     0.25120   0.99700   0.65710   0.00000  Uiso   1.00
C153   C     0.23880   0.91830   0.69903   0.00000  Uiso   1.00
H154   H     0.32980   0.92630   0.70330   0.00000  Uiso   1.00
C155   C     0.15500   0.86210   0.72095   0.00000  Uiso   1.00
C156   C     0.01860   0.85710   0.71424   0.00000  Uiso   1.00
H157   H     0.95900   0.82280   0.72900   0.00000  Uiso   1.00
C158   C     0.97210   0.90280   0.68594   0.00000  Uiso   1.00
H159   H     0.88080   0.89760   0.68160   0.00000  Uiso   1.00
O160   O     0.73948   0.10193   0.53954   0.00000  Uiso   1.00
O161   O     0.93481   0.17250   0.52684   0.00000  Uiso   1.00
C162   C     0.63590   0.37770   0.54529   0.00000  Uiso   1.00
C163   C     0.58170   0.42640   0.57449   0.00000  Uiso   1.00
C164   C     0.44730   0.43500   0.58055   0.00000  Uiso   1.00
H165   H     0.38640   0.41490   0.56470   0.00000  Uiso   1.00
C166   C     0.40050   0.47240   0.60936   0.00000  Uiso   1.00
H167   H     0.30860   0.47770   0.61290   0.00000  Uiso   1.00
C168   C     0.49010   0.50290   0.63356   0.00000  Uiso   1.00
C169   C     0.62670   0.49320   0.62706   0.00000  Uiso   1.00
H170   H     0.68820   0.51270   0.64280   0.00000  Uiso   1.00
C171   C     0.67380   0.45520   0.59777   0.00000  Uiso   1.00
H172   H     0.76540   0.44930   0.59390   0.00000  Uiso   1.00
C173   C     0.44210   0.54320   0.66347   0.00000  Uiso   1.00
C174   C     0.30910   0.53840   0.67158   0.00000  Uiso   1.00
H175   H     0.24880   0.50300   0.65710   0.00000  Uiso   1.00
C176   C     0.26120   0.58170   0.69903   0.00000  Uiso   1.00
H177   H     0.17020   0.57370   0.70330   0.00000  Uiso   1.00
C178   C     0.34500   0.63790   0.72095   0.00000  Uiso   1.00
C179   C     0.48140   0.64290   0.71424   0.00000  Uiso   1.00
H180   H     0.54100   0.67720   0.72900   0.00000  Uiso   1.00
C181   C     0.52790   0.59720   0.68594   0.00000  Uiso   1.00
H182   H     0.61920   0.60240   0.68160   0.00000  Uiso   1.00
O183   O     0.76052   0.39807   0.53954   0.00000  Uiso   1.00
O184   O     0.56519   0.32750   0.52684   0.00000  Uiso   1.00
C185   C     0.37770   0.63590   0.04529   0.00000  Uiso   1.00
C186   C     0.42640   0.58170   0.07449   0.00000  Uiso   1.00
C187   C     0.43500   0.44730   0.08055   0.00000  Uiso   1.00
H188   H     0.41490   0.38640   0.06470   0.00000  Uiso   1.00
C189   C     0.47240   0.40050   0.10936   0.00000  Uiso   1.00
H190   H     0.47770   0.30860   0.11290   0.00000  Uiso   1.00
C191   C     0.50290   0.49010   0.13356   0.00000  Uiso   1.00
C192   C     0.49320   0.62670   0.12706   0.00000  Uiso   1.00
H193   H     0.51270   0.68820   0.14280   0.00000  Uiso   1.00
C194   C     0.45520   0.67380   0.09777   0.00000  Uiso   1.00
H195   H     0.44930   0.76540   0.09390   0.00000  Uiso   1.00
C196   C     0.54320   0.44210   0.16347   0.00000  Uiso   1.00
C197   C     0.53840   0.30910   0.17158   0.00000  Uiso   1.00
H198   H     0.50300   0.24880   0.15710   0.00000  Uiso   1.00
C199   C     0.58170   0.26120   0.19903   0.00000  Uiso   1.00
H200   H     0.57370   0.17020   0.20330   0.00000  Uiso   1.00
C201   C     0.63790   0.34500   0.22095   0.00000  Uiso   1.00
C202   C     0.64290   0.48140   0.21424   0.00000  Uiso   1.00
H203   H     0.67720   0.54100   0.22900   0.00000  Uiso   1.00
C204   C     0.59720   0.52790   0.18594   0.00000  Uiso   1.00
H205   H     0.60240   0.61920   0.18160   0.00000  Uiso   1.00
O206   O     0.39807   0.76052   0.03954   0.00000  Uiso   1.00
O207   O     0.32750   0.56519   0.02684   0.00000  Uiso   1.00
C208   C     0.12230   0.86410   0.04529   0.00000  Uiso   1.00
C209   C     0.07360   0.91830   0.07449   0.00000  Uiso   1.00
C210   C     0.06500   0.05270   0.08055   0.00000  Uiso   1.00
H211   H     0.08510   0.11360   0.06470   0.00000  Uiso   1.00
C212   C     0.02760   0.09950   0.10936   0.00000  Uiso   1.00
H213   H     0.02230   0.19140   0.11290   0.00000  Uiso   1.00
C214   C     0.99710   0.00990   0.13356   0.00000  Uiso   1.00
C215   C     0.00680   0.87330   0.12706   0.00000  Uiso   1.00
H216   H     0.98730   0.81180   0.14280   0.00000  Uiso   1.00
C217   C     0.04480   0.82620   0.09777   0.00000  Uiso   1.00
H218   H     0.05070   0.73460   0.09390   0.00000  Uiso   1.00
C219   C     0.95680   0.05790   0.16347   0.00000  Uiso   1.00
C220   C     0.96160   0.19090   0.17158   0.00000  Uiso   1.00
H221   H     0.99700   0.25120   0.15710   0.00000  Uiso   1.00
C222   C     0.91830   0.23880   0.19903   0.00000  Uiso   1.00
H223   H     0.92630   0.32980   0.20330   0.00000  Uiso   1.00
C224   C     0.86210   0.15500   0.22095   0.00000  Uiso   1.00
C225   C     0.85710   0.01860   0.21424   0.00000  Uiso   1.00
H226   H     0.82280   0.95900   0.22900   0.00000  Uiso   1.00
C227   C     0.90280   0.97210   0.18594   0.00000  Uiso   1.00
H228   H     0.89760   0.88080   0.18160   0.00000  Uiso   1.00
O229   O     0.10193   0.73948   0.03954   0.00000  Uiso   1.00
O230   O     0.17250   0.93481   0.02684   0.00000  Uiso   1.00
C231   C     0.86410   0.37770   0.04529   0.00000  Uiso   1.00
C232   C     0.91830   0.42640   0.07449   0.00000  Uiso   1.00
C233   C     0.05270   0.43500   0.08055   0.00000  Uiso   1.00
H234   H     0.11360   0.41490   0.06470   0.00000  Uiso   1.00
C235   C     0.09950   0.47240   0.10936   0.00000  Uiso   1.00
H236   H     0.19140   0.47770   0.11290   0.00000  Uiso   1.00
C237   C     0.00990   0.50290   0.13356   0.00000  Uiso   1.00
C238   C     0.87330   0.49320   0.12706   0.00000  Uiso   1.00
H239   H     0.81180   0.51270   0.14280   0.00000  Uiso   1.00
C240   C     0.82620   0.45520   0.09777   0.00000  Uiso   1.00
H241   H     0.73460   0.44930   0.09390   0.00000  Uiso   1.00
C242   C     0.05790   0.54320   0.16347   0.00000  Uiso   1.00
C243   C     0.19090   0.53840   0.17158   0.00000  Uiso   1.00
H244   H     0.25120   0.50300   0.15710   0.00000  Uiso   1.00
C245   C     0.23880   0.58170   0.19903   0.00000  Uiso   1.00
H246   H     0.32980   0.57370   0.20330   0.00000  Uiso   1.00
C247   C     0.15500   0.63790   0.22095   0.00000  Uiso   1.00
C248   C     0.01860   0.64290   0.21424   0.00000  Uiso   1.00
H249   H     0.95900   0.67720   0.22900   0.00000  Uiso   1.00
C250   C     0.97210   0.59720   0.18594   0.00000  Uiso   1.00
H251   H     0.88080   0.60240   0.18160   0.00000  Uiso   1.00
O252   O     0.73948   0.39807   0.03954   0.00000  Uiso   1.00
O253   O     0.93481   0.32750   0.02684   0.00000  Uiso   1.00
C254   C     0.63590   0.12230   0.04529   0.00000  Uiso   1.00
C255   C     0.58170   0.07360   0.07449   0.00000  Uiso   1.00
C256   C     0.44730   0.06500   0.08055   0.00000  Uiso   1.00
H257   H     0.38640   0.08510   0.06470   0.00000  Uiso   1.00
C258   C     0.40050   0.02760   0.10936   0.00000  Uiso   1.00
H259   H     0.30860   0.02230   0.11290   0.00000  Uiso   1.00
C260   C     0.49010   0.99710   0.13356   0.00000  Uiso   1.00
C261   C     0.62670   0.00680   0.12706   0.00000  Uiso   1.00
H262   H     0.68820   0.98730   0.14280   0.00000  Uiso   1.00
C263   C     0.67380   0.04480   0.09777   0.00000  Uiso   1.00
H264   H     0.76540   0.05070   0.09390   0.00000  Uiso   1.00
C265   C     0.44210   0.95680   0.16347   0.00000  Uiso   1.00
C266   C     0.30910   0.96160   0.17158   0.00000  Uiso   1.00
H267   H     0.24880   0.99700   0.15710   0.00000  Uiso   1.00
C268   C     0.26120   0.91830   0.19903   0.00000  Uiso   1.00
H269   H     0.17020   0.92630   0.20330   0.00000  Uiso   1.00
C270   C     0.34500   0.86210   0.22095   0.00000  Uiso   1.00
C271   C     0.48140   0.85710   0.21424   0.00000  Uiso   1.00
H272   H     0.54100   0.82280   0.22900   0.00000  Uiso   1.00
C273   C     0.52790   0.90280   0.18594   0.00000  Uiso   1.00
H274   H     0.61920   0.89760   0.18160   0.00000  Uiso   1.00
O275   O     0.76052   0.10193   0.03954   0.00000  Uiso   1.00
O276   O     0.56519   0.17250   0.02684   0.00000  Uiso   1.00
C277   C     0.62230   0.13590   0.45471   0.00000  Uiso   1.00
C278   C     0.57360   0.08170   0.42551   0.00000  Uiso   1.00
C279   C     0.56500   0.94730   0.41945   0.00000  Uiso   1.00
H280   H     0.58510   0.88640   0.43530   0.00000  Uiso   1.00
C281   C     0.52760   0.90050   0.39064   0.00000  Uiso   1.00
H282   H     0.52230   0.80860   0.38710   0.00000  Uiso   1.00
C283   C     0.49710   0.99010   0.36644   0.00000  Uiso   1.00
C284   C     0.50680   0.12670   0.37294   0.00000  Uiso   1.00
H285   H     0.48730   0.18820   0.35720   0.00000  Uiso   1.00
C286   C     0.54480   0.17380   0.40223   0.00000  Uiso   1.00
H287   H     0.55070   0.26540   0.40610   0.00000  Uiso   1.00
C288   C     0.45680   0.94210   0.33653   0.00000  Uiso   1.00
C289   C     0.46160   0.80910   0.32842   0.00000  Uiso   1.00
H290   H     0.49700   0.74880   0.34290   0.00000  Uiso   1.00
C291   C     0.41830   0.76120   0.30097   0.00000  Uiso   1.00
H292   H     0.42630   0.67020   0.29670   0.00000  Uiso   1.00
C293   C     0.36210   0.84500   0.27905   0.00000  Uiso   1.00
C294   C     0.35710   0.98140   0.28576   0.00000  Uiso   1.00
H295   H     0.32280   0.04100   0.27100   0.00000  Uiso   1.00
C296   C     0.40280   0.02790   0.31406   0.00000  Uiso   1.00
H297   H     0.39760   0.11920   0.31840   0.00000  Uiso   1.00
O298   O     0.60193   0.26052   0.46046   0.00000  Uiso   1.00
O299   O     0.67250   0.06519   0.47316   0.00000  Uiso   1.00
C300   C     0.87770   0.36410   0.45471   0.00000  Uiso   1.00
C301   C     0.92640   0.41830   0.42551   0.00000  Uiso   1.00
C302   C     0.93500   0.55270   0.41945   0.00000  Uiso   1.00
H303   H     0.91490   0.61360   0.43530   0.00000  Uiso   1.00
C304   C     0.97240   0.59950   0.39064   0.00000  Uiso   1.00
H305   H     0.97770   0.69140   0.38710   0.00000  Uiso   1.00
C306   C     0.00290   0.50990   0.36644   0.00000  Uiso   1.00
C307   C     0.99320   0.37330   0.37294   0.00000  Uiso   1.00
H308   H     0.01270   0.31180   0.35720   0.00000  Uiso   1.00
C309   C     0.95520   0.32620   0.40223   0.00000  Uiso   1.00
H310   H     0.94930   0.23460   0.40610   0.00000  Uiso   1.00
C311   C     0.04320   0.55790   0.33653   0.00000  Uiso   1.00
C312   C     0.03840   0.69090   0.32842   0.00000  Uiso   1.00
H313   H     0.00300   0.75120   0.34290   0.00000  Uiso   1.00
C314   C     0.08170   0.73880   0.30097   0.00000  Uiso   1.00
H315   H     0.07370   0.82980   0.29670   0.00000  Uiso   1.00
C316   C     0.13790   0.65500   0.27905   0.00000  Uiso   1.00
C317   C     0.14290   0.51860   0.28576   0.00000  Uiso   1.00
H318   H     0.17720   0.45900   0.27100   0.00000  Uiso   1.00
C319   C     0.09720   0.47210   0.31406   0.00000  Uiso   1.00
H320   H     0.10240   0.38080   0.31840   0.00000  Uiso   1.00
O321   O     0.89807   0.23948   0.46046   0.00000  Uiso   1.00
O322   O     0.82750   0.43481   0.47316   0.00000  Uiso   1.00
C323   C     0.13590   0.87770   0.45471   0.00000  Uiso   1.00
C324   C     0.08170   0.92640   0.42551   0.00000  Uiso   1.00
C325   C     0.94730   0.93500   0.41945   0.00000  Uiso   1.00
H326   H     0.88640   0.91490   0.43530   0.00000  Uiso   1.00
C327   C     0.90050   0.97240   0.39064   0.00000  Uiso   1.00
H328   H     0.80860   0.97770   0.38710   0.00000  Uiso   1.00
C329   C     0.99010   0.00290   0.36644   0.00000  Uiso   1.00
C330   C     0.12670   0.99320   0.37294   0.00000  Uiso   1.00
H331   H     0.18820   0.01270   0.35720   0.00000  Uiso   1.00
C332   C     0.17380   0.95520   0.40223   0.00000  Uiso   1.00
H333   H     0.26540   0.94930   0.40610   0.00000  Uiso   1.00
C334   C     0.94210   0.04320   0.33653   0.00000  Uiso   1.00
C335   C     0.80910   0.03840   0.32842   0.00000  Uiso   1.00
H336   H     0.74880   0.00300   0.34290   0.00000  Uiso   1.00
C337   C     0.76120   0.08170   0.30097   0.00000  Uiso   1.00
H338   H     0.67020   0.07370   0.29670   0.00000  Uiso   1.00
C339   C     0.84500   0.13790   0.27905   0.00000  Uiso   1.00
C340   C     0.98140   0.14290   0.28576   0.00000  Uiso   1.00
H341   H     0.04100   0.17720   0.27100   0.00000  Uiso   1.00
C342   C     0.02790   0.09720   0.31406   0.00000  Uiso   1.00
H343   H     0.11920   0.10240   0.31840   0.00000  Uiso   1.00
O344   O     0.26052   0.89807   0.46046   0.00000  Uiso   1.00
O345   O     0.06519   0.82750   0.47316   0.00000  Uiso   1.00
C346   C     0.36410   0.62230   0.45471   0.00000  Uiso   1.00
C347   C     0.41830   0.57360   0.42551   0.00000  Uiso   1.00
C348   C     0.55270   0.56500   0.41945   0.00000  Uiso   1.00
H349   H     0.61360   0.58510   0.43530   0.00000  Uiso   1.00
C350   C     0.59950   0.52760   0.39064   0.00000  Uiso   1.00
H351   H     0.69140   0.52230   0.38710   0.00000  Uiso   1.00
C352   C     0.50990   0.49710   0.36644   0.00000  Uiso   1.00
C353   C     0.37330   0.50680   0.37294   0.00000  Uiso   1.00
H354   H     0.31180   0.48730   0.35720   0.00000  Uiso   1.00
C355   C     0.32620   0.54480   0.40223   0.00000  Uiso   1.00
H356   H     0.23460   0.55070   0.40610   0.00000  Uiso   1.00
C357   C     0.55790   0.45680   0.33653   0.00000  Uiso   1.00
C358   C     0.69090   0.46160   0.32842   0.00000  Uiso   1.00
H359   H     0.75120   0.49700   0.34290   0.00000  Uiso   1.00
C360   C     0.73880   0.41830   0.30097   0.00000  Uiso   1.00
H361   H     0.82980   0.42630   0.29670   0.00000  Uiso   1.00
C362   C     0.65500   0.36210   0.27905   0.00000  Uiso   1.00
C363   C     0.51860   0.35710   0.28576   0.00000  Uiso   1.00
H364   H     0.45900   0.32280   0.27100   0.00000  Uiso   1.00
C365   C     0.47210   0.40280   0.31406   0.00000  Uiso   1.00
H366   H     0.38080   0.39760   0.31840   0.00000  Uiso   1.00
O367   O     0.23948   0.60193   0.46046   0.00000  Uiso   1.00
O368   O     0.43481   0.67250   0.47316   0.00000  Uiso   1.00
C369   C     0.29920   0.70080   0.75000   0.00000  Uiso   1.00
C370   C     0.20080   0.79920   0.75000   0.00000  Uiso   1.00
C371   C     0.79920   0.29920   0.75000   0.00000  Uiso   1.00
C372   C     0.70080   0.20080   0.75000   0.00000  Uiso   1.00
C373   C     0.70080   0.29920   0.25000   0.00000  Uiso   1.00
C374   C     0.79920   0.20080   0.25000   0.00000  Uiso   1.00
C375   C     0.20080   0.70080   0.25000   0.00000  Uiso   1.00
C376   C     0.29920   0.79920   0.25000   0.00000  Uiso   1.00
In377  In    0.75000   0.25000   0.00000   0.00000  Uiso   1.00
In378  In    0.25000   0.75000   0.00000   0.00000  Uiso   1.00
In379  In    0.25000   0.75000   0.50000   0.00000  Uiso   1.00
In380  In    0.75000   0.25000   0.50000   0.00000  Uiso   1.00
loop_
_geom_bond_atom_site_label_1
_geom_bond_atom_site_label_2
_geom_bond_distance
_geom_bond_site_symmetry_2
_ccdc_geom_bond_type
C1     C2      1.472   .     S
C1     O22     1.310   .     S
C1     O23     1.194   .     S
C2     C3      1.397   .     S
C2     C10     1.412   .     S
C3     H4      0.950   .     S
C3     C5      1.395   .     S
C5     H6      0.950   .     S
C5     C7      1.428   .     S
C7     C8      1.423   .     S
C7     C12     1.450   .     S
C8     H9      0.949   .     S
C8     C10     1.416   .     S
C10    H11     0.950   .     S
C12    C13     1.401   .     S
C12    C20     1.422   .     S
C13    H14     0.951   .     S
C13    C15     1.364   .     S
C15    H16     0.949   .     S
C15    C17     1.402   .     S
C17    C18     1.420   .     S
C17    C369    1.493   .     S
C18    H19     0.951   .     S
C18    C20     1.400   .     S
C20    H21     0.950   .     S
O22    In377   2.291   1_556 S
O23    In377   2.352   1_556 S
C24    C25     1.472   .     S
C24    O45     1.310   .     S
C24    O46     1.194   .     S
C25    C26     1.397   1_545 S
C25    C33     1.412   .     S
C26    C25     1.397   1_565 S
C26    H27     0.950   .     S
C26    C28     1.395   .     S
C28    H29     0.950   .     S
C28    C30     1.428   1_655 S
C30    C28     1.428   1_455 S
C30    C31     1.423   1_465 S
C30    C35     1.450   .     S
C31    C30     1.423   1_645 S
C31    H32     0.949   1_655 S
C31    C33     1.416   .     S
H32    C31     0.949   1_455 S
C33    H34     0.950   .     S
C35    C36     1.401   .     S
C35    C43     1.422   1_565 S
C36    H37     0.951   .     S
C36    C38     1.364   .     S
C38    H39     0.949   .     S
C38    C40     1.402   .     S
C40    C41     1.420   .     S
C40    C370    1.493   .     S
C41    H42     0.951   1_565 S
C41    C43     1.400   1_565 S
H42    C41     0.951   1_545 S
C43    C35     1.422   1_545 S
C43    H44     0.950   .     S
C43    C41     1.400   1_545 S
O45    In377   2.291   1_556 S
O46    In377   2.352   1_556 S
C47    C48     1.472   .     S
C47    O68     1.310   .     S
C47    O69     1.194   .     S
C48    C49     1.397   1_455 S
C48    C56     1.412   .     S
C49    C48     1.397   1_655 S
C49    H50     0.950   .     S
C49    C51     1.395   .     S
C51    H52     0.950   .     S
C51    C53     1.428   .     S
C53    C54     1.423   1_655 S
C53    C58     1.450   .     S
C54    C53     1.423   1_455 S
C54    H55     0.949   .     S
C54    C56     1.416   .     S
C56    H57     0.950   .     S
C58    C59     1.401   .     S
C58    C66     1.422   1_655 S
C59    H60     0.951   .     S
C59    C61     1.364   .     S
C61    H62     0.949   .     S
C61    C63     1.402   .     S
C63    C64     1.420   .     S
C63    C371    1.493   .     S
C64    H65     0.951   1_655 S
C64    C66     1.400   1_655 S
H65    C64     0.951   1_455 S
C66    C58     1.422   1_455 S
C66    H67     0.950   .     S
C66    C64     1.400   1_455 S
O68    In378   2.291   1_556 S
O69    In378   2.352   1_556 S
C70    C71     1.472   .     S
C70    O91     1.310   .     S
C70    O92     1.194   .     S
C71    C72     1.397   .     S
C71    C79     1.412   .     S
C72    H73     0.950   .     S
C72    C74     1.395   .     S
C74    H75     0.950   .     S
C74    C76     1.428   1_565 S
C76    C74     1.428   1_545 S
C76    C77     1.423   1_545 S
C76    C81     1.450   .     S
C77    C76     1.423   1_565 S
C77    H78     0.949   1_565 S
C77    C79     1.416   .     S
H78    C77     0.949   1_545 S
C79    H80     0.950   .     S
C81    C82     1.401   .     S
C81    C89     1.422   .     S
C82    H83     0.951   .     S
C82    C84     1.364   .     S
C84    H85     0.949   .     S
C84    C86     1.402   .     S
C86    C87     1.420   .     S
C86    C372    1.493   .     S
C87    H88     0.951   .     S
C87    C89     1.400   .     S
C89    H90     0.950   .     S
O91    In378   2.291   1_556 S
O92    In378   2.352   1_556 S
C93    C94     1.472   .     S
C93    O114    1.310   .     S
C93    O115    1.194   .     S
C94    C95     1.397   1_565 S
C94    C102    1.412   .     S
C95    C94     1.397   1_545 S
C95    H96     0.950   .     S
C95    C97     1.395   .     S
C97    H98     0.950   .     S
C97    C99     1.428   .     S
C99    C100    1.423   1_545 S
C99    C104    1.450   .     S
C100   C99     1.423   1_565 S
C100   H101    0.949   .     S
C100   C102    1.416   .     S
C102   H103    0.950   .     S
C104   C105    1.401   .     S
C104   C112    1.422   1_545 S
C105   H106    0.951   .     S
C105   C107    1.364   .     S
C107   H108    0.949   .     S
C107   C109    1.402   .     S
C109   C110    1.420   .     S
C109   C372    1.493   .     S
C110   H111    0.951   1_545 S
C110   C112    1.400   1_545 S
H111   C110    0.951   1_565 S
C112   C104    1.422   1_565 S
C112   H113    0.950   .     S
C112   C110    1.400   1_565 S
O114   In379   2.291   .     S
O115   In379   2.352   .     S
C116   C117    1.472   .     S
C116   O137    1.310   .     S
C116   O138    1.194   .     S
C117   C118    1.397   .     S
C117   C125    1.412   .     S
C118   H119    0.950   .     S
C118   C120    1.395   .     S
C120   H121    0.950   .     S
C120   C122    1.428   1_455 S
C122   C120    1.428   1_655 S
C122   C123    1.423   1_655 S
C122   C127    1.450   .     S
C123   C122    1.423   1_455 S
C123   H124    0.949   1_455 S
C123   C125    1.416   .     S
H124   C123    0.949   1_655 S
C125   H126    0.950   .     S
C127   C128    1.401   .     S
C127   C135    1.422   .     S
C128   H129    0.951   .     S
C128   C130    1.364   .     S
C130   H131    0.949   .     S
C130   C132    1.402   .     S
C132   C133    1.420   .     S
C132   C371    1.493   .     S
C133   H134    0.951   .     S
C133   C135    1.400   .     S
C135   H136    0.950   .     S
O137   In379   2.291   .     S
O138   In379   2.352   .     S
C139   C140    1.472   .     S
C139   O160    1.310   .     S
C139   O161    1.194   .     S
C140   C141    1.397   1_655 S
C140   C148    1.412   .     S
C141   C140    1.397   1_455 S
C141   H142    0.950   .     S
C141   C143    1.395   .     S
C143   H144    0.950   .     S
C143   C145    1.428   1_545 S
C145   C143    1.428   1_565 S
C145   C146    1.423   1_465 S
C145   C150    1.450   .     S
C146   C145    1.423   1_645 S
C146   H147    0.949   1_545 S
C146   C148    1.416   .     S
H147   C146    0.949   1_565 S
C148   H149    0.950   .     S
C150   C151    1.401   .     S
C150   C158    1.422   1_455 S
C151   H152    0.951   .     S
C151   C153    1.364   .     S
C153   H154    0.949   .     S
C153   C155    1.402   .     S
C155   C156    1.420   .     S
C155   C370    1.493   .     S
C156   H157    0.951   1_455 S
C156   C158    1.400   1_455 S
H157   C156    0.951   1_655 S
C158   C150    1.422   1_655 S
C158   H159    0.950   .     S
C158   C156    1.400   1_655 S
O160   In380   2.291   .     S
O161   In380   2.352   .     S
C162   C163    1.472   .     S
C162   O183    1.310   .     S
C162   O184    1.194   .     S
C163   C164    1.397   .     S
C163   C171    1.412   .     S
C164   H165    0.950   .     S
C164   C166    1.395   .     S
C166   H167    0.950   .     S
C166   C168    1.428   .     S
C168   C169    1.423   .     S
C168   C173    1.450   .     S
C169   H170    0.949   .     S
C169   C171    1.416   .     S
C171   H172    0.950   .     S
C173   C174    1.401   .     S
C173   C181    1.422   .     S
C174   H175    0.951   .     S
C174   C176    1.364   .     S
C176   H177    0.949   .     S
C176   C178    1.402   .     S
C178   C179    1.420   .     S
C178   C369    1.493   .     S
C179   H180    0.951   .     S
C179   C181    1.400   .     S
C181   H182    0.950   .     S
O183   In380   2.291   .     S
O184   In380   2.352   .     S
C185   C186    1.472   .     S
C185   O206    1.310   .     S
C185   O207    1.194   .     S
C186   C187    1.397   .     S
C186   C194    1.412   .     S
C187   H188    0.950   .     S
C187   C189    1.395   .     S
C189   H190    0.950   .     S
C189   C191    1.428   .     S
C191   C192    1.423   .     S
C191   C196    1.450   .     S
C192   H193    0.949   .     S
C192   C194    1.416   .     S
C194   H195    0.950   .     S
C196   C197    1.401   .     S
C196   C204    1.422   .     S
C197   H198    0.951   .     S
C197   C199    1.364   .     S
C199   H200    0.949   .     S
C199   C201    1.402   .     S
C201   C202    1.420   .     S
C201   C373    1.493   .     S
C202   H203    0.951   .     S
C202   C204    1.400   .     S
C204   H205    0.950   .     S
O206   In378   2.291   .     S
O207   In378   2.352   .     S
C208   C209    1.472   .     S
C208   O229    1.310   .     S
C208   O230    1.194   .     S
C209   C210    1.397   1_565 S
C209   C217    1.412   .     S
C210   C209    1.397   1_545 S
C210   H211    0.950   .     S
C210   C212    1.395   .     S
C212   H213    0.950   .     S
C212   C214    1.428   1_455 S
C214   C212    1.428   1_655 S
C214   C215    1.423   1_645 S
C214   C219    1.450   .     S
C215   C214    1.423   1_465 S
C215   H216    0.949   1_455 S
C215   C217    1.416   .     S
H216   C215    0.949   1_655 S
C217   H218    0.950   .     S
C219   C220    1.401   .     S
C219   C227    1.422   1_545 S
C220   H221    0.951   .     S
C220   C222    1.364   .     S
C222   H223    0.949   .     S
C222   C224    1.402   .     S
C224   C225    1.420   .     S
C224   C374    1.493   .     S
C225   H226    0.951   1_545 S
C225   C227    1.400   1_545 S
H226   C225    0.951   1_565 S
C227   C219    1.422   1_565 S
C227   H228    0.950   .     S
C227   C225    1.400   1_565 S
O229   In378   2.291   .     S
O230   In378   2.352   .     S
C231   C232    1.472   .     S
C231   O252    1.310   .     S
C231   O253    1.194   .     S
C232   C233    1.397   1_655 S
C232   C240    1.412   .     S
C233   C232    1.397   1_455 S
C233   H234    0.950   .     S
C233   C235    1.395   .     S
C235   H236    0.950   .     S
C235   C237    1.428   .     S
C237   C238    1.423   1_455 S
C237   C242    1.450   .     S
C238   C237    1.423   1_655 S
C238   H239    0.949   .     S
C238   C240    1.416   .     S
C240   H241    0.950   .     S
C242   C243    1.401   .     S
C242   C250    1.422   1_455 S
C243   H244    0.951   .     S
C243   C245    1.364   .     S
C245   H246    0.949   .     S
C245   C247    1.402   .     S
C247   C248    1.420   .     S
C247   C375    1.493   .     S
C248   H249    0.951   1_455 S
C248   C250    1.400   1_455 S
H249   C248    0.951   1_655 S
C250   C242    1.422   1_655 S
C250   H251    0.950   .     S
C250   C248    1.400   1_655 S
O252   In377   2.291   .     S
O253   In377   2.352   .     S
C254   C255    1.472   .     S
C254   O275    1.310   .     S
C254   O276    1.194   .     S
C255   C256    1.397   .     S
C255   C263    1.412   .     S
C256   H257    0.950   .     S
C256   C258    1.395   .     S
C258   H259    0.950   .     S
C258   C260    1.428   1_545 S
C260   C258    1.428   1_565 S
C260   C261    1.423   1_565 S
C260   C265    1.450   .     S
C261   C260    1.423   1_545 S
C261   H262    0.949   1_545 S
C261   C263    1.416   .     S
H262   C261    0.949   1_565 S
C263   H264    0.950   .     S
C265   C266    1.401   .     S
C265   C273    1.422   .     S
C266   H267    0.951   .     S
C266   C268    1.364   .     S
C268   H269    0.949   .     S
C268   C270    1.402   .     S
C270   C271    1.420   .     S
C270   C376    1.493   .     S
C271   H272    0.951   .     S
C271   C273    1.400   .     S
C273   H274    0.950   .     S
O275   In377   2.291   .     S
O276   In377   2.352   .     S
C277   C278    1.472   .     S
C277   O298    1.310   .     S
C277   O299    1.194   .     S
C278   C279    1.397   1_545 S
C278   C286    1.412   .     S
C279   C278    1.397   1_565 S
C279   H280    0.950   .     S
C279   C281    1.395   .     S
C281   H282    0.950   .     S
C281   C283    1.428   .     S
C283   C284    1.423   1_565 S
C283   C288    1.450   .     S
C284   C283    1.423   1_545 S
C284   H285    0.949   .     S
C284   C286    1.416   .     S
C286   H287    0.950   .     S
C288   C289    1.401   .     S
C288   C296    1.422   1_565 S
C289   H290    0.951   .     S
C289   C291    1.364   .     S
C291   H292    0.949   .     S
C291   C293    1.402   .     S
C293   C294    1.420   .     S
C293   C376    1.493   .     S
C294   H295    0.951   1_565 S
C294   C296    1.400   1_565 S
H295   C294    0.951   1_545 S
C296   C288    1.422   1_545 S
C296   H297    0.950   .     S
C296   C294    1.400   1_545 S
O298   In380   2.291   .     S
O299   In380   2.352   .     S
C300   C301    1.472   .     S
C300   O321    1.310   .     S
C300   O322    1.194   .     S
C301   C302    1.397   .     S
C301   C309    1.412   .     S
C302   H303    0.950   .     S
C302   C304    1.395   .     S
C304   H305    0.950   .     S
C304   C306    1.428   1_655 S
C306   C304    1.428   1_455 S
C306   C307    1.423   1_455 S
C306   C311    1.450   .     S
C307   C306    1.423   1_655 S
C307   H308    0.949   1_655 S
C307   C309    1.416   .     S
H308   C307    0.949   1_455 S
C309   H310    0.950   .     S
C311   C312    1.401   .     S
C311   C319    1.422   .     S
C312   H313    0.951   .     S
C312   C314    1.364   .     S
C314   H315    0.949   .     S
C314   C316    1.402   .     S
C316   C317    1.420   .     S
C316   C375    1.493   .     S
C317   H318    0.951   .     S
C317   C319    1.400   .     S
C319   H320    0.950   .     S
O321   In380   2.291   .     S
O322   In380   2.352   .     S
C323   C324    1.472   .     S
C323   O344    1.310   .     S
C323   O345    1.194   .     S
C324   C325    1.397   1_455 S
C324   C332    1.412   .     S
C325   C324    1.397   1_655 S
C325   H326    0.950   .     S
C325   C327    1.395   .     S
C327   H328    0.950   .     S
C327   C329    1.428   1_565 S
C329   C327    1.428   1_545 S
C329   C330    1.423   1_645 S
C329   C334    1.450   .     S
C330   C329    1.423   1_465 S
C330   H331    0.949   1_565 S
C330   C332    1.416   .     S
H331   C330    0.949   1_545 S
C332   H333    0.950   .     S
C334   C335    1.401   .     S
C334   C342    1.422   1_655 S
C335   H336    0.951   .     S
C335   C337    1.364   .     S
C337   H338    0.949   .     S
C337   C339    1.402   .     S
C339   C340    1.420   .     S
C339   C374    1.493   .     S
C340   H341    0.951   1_655 S
C340   C342    1.400   1_655 S
H341   C340    0.951   1_455 S
C342   C334    1.422   1_455 S
C342   H343    0.950   .     S
C342   C340    1.400   1_455 S
O344   In379   2.291   .     S
O345   In379   2.352   .     S
C346   C347    1.472   .     S
C346   O367    1.310   .     S
C346   O368    1.194   .     S
C347   C348    1.397   .     S
C347   C355    1.412   .     S
C348   H349    0.950   .     S
C348   C350    1.395   .     S
C350   H351    0.950   .     S
C350   C352    1.428   .     S
C352   C353    1.423   .     S
C352   C357    1.450   .     S
C353   H354    0.949   .     S
C353   C355    1.416   .     S
C355   H356    0.950   .     S
C357   C358    1.401   .     S
C357   C365    1.422   .     S
C358   H359    0.951   .     S
C358   C360    1.364   .     S
C360   H361    0.949   .     S
C360   C362    1.402   .     S
C362   C363    1.420   .     S
C362   C373    1.493   .     S
C363   H364    0.951   .     S
C363   C365    1.400   .     S
C365   H366    0.950   .     S
O367   In379   2.291   .     S
O368   In379   2.352   .     S
C369   C370    1.417   .     S
C371   C372    1.417   .     S
C373   C374    1.417   .     S
C375   C376    1.417   .     S
In377  O22     2.291   1_554 S
In377  O45     2.291   1_554 S
In377  O46     2.352   1_554 S
In377  O23     2.352   1_554 S
In378  O68     2.291   1_554 S
In378  O91     2.291   1_554 S
In378  O92     2.352   1_554 S
In378  O69     2.352   1_554 S
