data_SOCPEI_FSR
_audit_creation_date              2024-06-11
_audit_creation_method            'Materials Studio'
_symmetry_space_group_name_H-M    'P1'
_symmetry_Int_Tables_number       1
_symmetry_cell_setting            triclinic
loop_
_symmetry_equiv_pos_as_xyz
  x,y,z
_cell_length_a                    31.2500
_cell_length_b                    24.8930
_cell_length_c                    18.6983
_cell_angle_alpha                 90.0000
_cell_angle_beta                  118.0810
_cell_angle_gamma                 90.0000
loop_
_atom_site_label
_atom_site_type_symbol
_atom_site_fract_x
_atom_site_fract_y
_atom_site_fract_z
_atom_site_U_iso_or_equiv
_atom_site_adp_type
_atom_site_occupancy
Zn1    Zn    0.77950   0.30213   0.61653   0.03136  Uani   1.00
O2     O     0.74786   0.30757   0.68430   0.03778  Uani   1.00
O3     O     0.73847   0.32923   0.50820   0.03315  Uani   1.00
O4     O     0.78785   0.22492   0.61940   0.03343  Uani   1.00
O5     O     0.83662   0.34665   0.65480   0.03577  Uani   1.00
P6     P     0.74000   0.34778   0.73711   0.03360  Uani   1.00
O7     O     0.72374   0.31998   0.79310   0.03819  Uani   1.00
O8     O     0.78499   0.38278   0.78560   0.03758  Uani   1.00
C9     C     0.69290   0.39170   0.67130   0.02707  Uani   1.00
H10    H     0.80270   0.37610   0.83300   0.04500  Uiso   1.00
C11    C     0.66060   0.41460   0.69420   0.03731  Uani   1.00
C12    C     0.68640   0.40490   0.59520   0.05816  Uani   1.00
C13    C     0.62550   0.44980   0.64300   0.03258  Uani   1.00
H14    H     0.66270   0.40600   0.74530   0.04500  Uiso   1.00
H15    H     0.70720   0.38890   0.57700   0.07000  Uiso   1.00
C16    C     0.65100   0.44030   0.54400   0.05398  Uani   1.00
C17    C     0.62050   0.46420   0.56870   0.02375  Uani   1.00
H18    H     0.60390   0.46480   0.66010   0.03900  Uiso   1.00
H19    H     0.64790   0.44800   0.49200   0.06500  Uiso   1.00
C20    C     0.58220   0.50190   0.51390   0.01993  Uani   1.00
C21    C     0.54170   0.48160   0.44950   0.02288  Uani   1.00
C22    C     0.58720   0.55550   0.53350   0.02209  Uani   1.00
N23    N     0.50686   0.51214   0.38820   0.02026  Uani   1.00
C24    C     0.52890   0.42600   0.43800   0.02631  Uani   1.00
N25    N     0.55322   0.59453   0.49040   0.02294  Uani   1.00
C26    C     0.62370   0.57750   0.60820   0.02342  Uani   1.00
Ni27   Ni    0.49952   0.58887   0.38283   0.02164  Uani   1.00
C28    C     0.47400   0.47500   0.33700   0.02009  Uani   1.00
C29    C     0.48680   0.42170   0.37050   0.02772  Uani   1.00
H30    H     0.54700   0.39730   0.47240   0.03100  Uiso   1.00
C31    C     0.56680   0.63840   0.54050   0.02402  Uani   1.00
H32    H     0.65200   0.55950   0.64680   0.02800  Uiso   1.00
C33    C     0.61090   0.62810   0.61400   0.02734  Uani   1.00
N34    N     0.48747   0.66483   0.38210   0.02614  Uani   1.00
N35    N     0.44920   0.58430   0.27170   0.02246  Uani   1.00
C36    C     0.43610   0.48640   0.26040   0.02446  Uani   1.00
H37    H     0.46880   0.38980   0.34860   0.03300  Uiso   1.00
C38    C     0.54200   0.68630   0.52450   0.02237  Uani   1.00
H39    H     0.62770   0.65230   0.65780   0.03300  Uiso   1.00
C40    C     0.45700   0.69680   0.31690   0.02573  Uani   1.00
C41    C     0.50440   0.69950   0.44800   0.02799  Uani   1.00
C42    C     0.42900   0.62610   0.21800   0.02751  Uani   1.00
C43    C     0.42818   0.53810   0.22830   0.02193  Uani   1.00
C44    C     0.40400   0.44200   0.21080   0.02531  Uani   1.00
C45    C     0.55700   0.72660   0.59200   0.02698  Uani   1.00
C46    C     0.43200   0.67940   0.23770   0.02751  Uani   1.00
C47    C     0.45440   0.74930   0.34350   0.03346  Uani   1.00
C48    C     0.48250   0.75120   0.42400   0.03129  Uani   1.00
C49    C     0.39740   0.60490   0.13830   0.03599  Uani   1.00
C50    C     0.39640   0.55130   0.14640   0.03075  Uani   1.00
C51    C     0.35470   0.44220   0.18810   0.03218  Uani   1.00
C52    C     0.42140   0.39840   0.18680   0.03392  Uani   1.00
C53    C     0.59620   0.76020   0.61410   0.04229  Uani   1.00
C54    C     0.53310   0.72790   0.63850   0.03852  Uani   1.00
C55    C     0.40350   0.71940   0.17330   0.03044  Uani   1.00
H56    H     0.43590   0.77820   0.31010   0.04000  Uiso   1.00
H57    H     0.48700   0.78120   0.45840   0.03800  Uiso   1.00
H58    H     0.38060   0.62500   0.08960   0.04300  Uiso   1.00
H59    H     0.37770   0.52660   0.10450   0.03700  Uiso   1.00
H60    H     0.34130   0.47170   0.20300   0.03900  Uiso   1.00
C61    C     0.32500   0.40030   0.14440   0.02925  Uani   1.00
C62    C     0.39210   0.35730   0.14310   0.03863  Uani   1.00
H63    H     0.45490   0.39700   0.20140   0.04100  Uiso   1.00
H64    H     0.61260   0.76060   0.58240   0.05100  Uiso   1.00
C65    C     0.61220   0.79310   0.68030   0.04257  Uani   1.00
C66    C     0.54950   0.76000   0.70590   0.04604  Uani   1.00
H67    H     0.50510   0.70640   0.62340   0.04600  Uiso   1.00
C68    C     0.42560   0.75180   0.14280   0.04057  Uani   1.00
C69    C     0.35500   0.72500   0.14660   0.07360  Uani   1.00
H70    H     0.29160   0.40120   0.13070   0.03500  Uiso   1.00
C71    C     0.34260   0.35740   0.12040   0.02709  Uani   1.00
H72    H     0.40550   0.32800   0.12770   0.04600  Uiso   1.00
H73    H     0.63920   0.81600   0.69370   0.05100  Uiso   1.00
C74    C     0.58940   0.79300   0.72720   0.02911  Uani   1.00
H75    H     0.53340   0.75960   0.73820   0.05600  Uiso   1.00
H76    H     0.45940   0.74820   0.16150   0.04900  Uiso   1.00
C77    C     0.39970   0.79050   0.08470   0.04438  Uani   1.00
C78    C     0.32930   0.76320   0.08930   0.07455  Uani   1.00
H79    H     0.33890   0.70260   0.16770   0.08800  Uiso   1.00
P80    P     0.30424   0.30319   0.06371   0.03178  Uani   1.00
P81    P     0.61018   0.83486   0.81573   0.03909  Uani   1.00
H82    H     0.41590   0.81250   0.06350   0.05400  Uiso   1.00
C83    C     0.35110   0.79690   0.05790   0.03880  Uani   1.00
H84    H     0.29540   0.76640   0.07070   0.08900  Uiso   1.00
O85    O     0.33356   0.26599   0.03860   0.03660  Uani   1.00
O86    O     0.57927   0.88398   0.79550   0.05157  Uani   1.00
O87    O     0.60212   0.80150   0.87850   0.04274  Uani   1.00
P88    P     0.31809   0.85072   0.98958   0.05556  Uani   1.00
H89    H     0.61470   0.78030   0.91640   0.05100  Uiso   1.00
O90    O     0.34015   0.85800   0.93190   0.06110  Uani   1.00
O91    O     0.26500   0.83400   0.94400   0.06359  Uani   1.00
O92    O     0.32450   0.89970   0.04130   0.09989  Uani   1.00
H93    H     0.24940   0.84580   0.89850   0.07600  Uiso   1.00
Zn94   Zn    0.27950   0.80213   0.61653   0.03136  Uani   1.00
O95    O     0.24786   0.80757   0.68430   0.03778  Uani   1.00
O96    O     0.23847   0.82923   0.50820   0.03315  Uani   1.00
O97    O     0.28785   0.72492   0.61940   0.03343  Uani   1.00
O98    O     0.33662   0.84665   0.65480   0.03577  Uani   1.00
P99    P     0.24000   0.84778   0.73711   0.03360  Uani   1.00
O100   O     0.22374   0.81998   0.79310   0.03819  Uani   1.00
O101   O     0.28499   0.88278   0.78560   0.03758  Uani   1.00
C102   C     0.19290   0.89170   0.67130   0.02707  Uani   1.00
H103   H     0.30270   0.87610   0.83300   0.04500  Uiso   1.00
C104   C     0.16060   0.91460   0.69420   0.03731  Uani   1.00
C105   C     0.18640   0.90490   0.59520   0.05816  Uani   1.00
C106   C     0.12550   0.94980   0.64300   0.03258  Uani   1.00
H107   H     0.16270   0.90600   0.74530   0.04500  Uiso   1.00
H108   H     0.20720   0.88890   0.57700   0.07000  Uiso   1.00
C109   C     0.15100   0.94030   0.54400   0.05398  Uani   1.00
C110   C     0.12050   0.96420   0.56870   0.02375  Uani   1.00
H111   H     0.10390   0.96480   0.66010   0.03900  Uiso   1.00
H112   H     0.14790   0.94800   0.49200   0.06500  Uiso   1.00
C113   C     0.08220   0.00190   0.51390   0.01993  Uani   1.00
C114   C     0.04170   0.98160   0.44950   0.02288  Uani   1.00
C115   C     0.08720   0.05550   0.53350   0.02209  Uani   1.00
N116   N     0.00686   0.01214   0.38820   0.02026  Uani   1.00
C117   C     0.02890   0.92600   0.43800   0.02631  Uani   1.00
N118   N     0.05322   0.09453   0.49040   0.02294  Uani   1.00
C119   C     0.12370   0.07750   0.60820   0.02342  Uani   1.00
Ni120  Ni    0.99952   0.08887   0.38283   0.02164  Uani   1.00
C121   C     0.97400   0.97500   0.33700   0.02009  Uani   1.00
C122   C     0.98680   0.92170   0.37050   0.02772  Uani   1.00
H123   H     0.04700   0.89730   0.47240   0.03100  Uiso   1.00
C124   C     0.06680   0.13840   0.54050   0.02402  Uani   1.00
H125   H     0.15200   0.05950   0.64680   0.02800  Uiso   1.00
C126   C     0.11090   0.12810   0.61400   0.02734  Uani   1.00
N127   N     0.98747   0.16483   0.38210   0.02614  Uani   1.00
N128   N     0.94920   0.08430   0.27170   0.02246  Uani   1.00
C129   C     0.93610   0.98640   0.26040   0.02446  Uani   1.00
H130   H     0.96880   0.88980   0.34860   0.03300  Uiso   1.00
C131   C     0.04200   0.18630   0.52450   0.02237  Uani   1.00
H132   H     0.12770   0.15230   0.65780   0.03300  Uiso   1.00
C133   C     0.95700   0.19680   0.31690   0.02573  Uani   1.00
C134   C     0.00440   0.19950   0.44800   0.02799  Uani   1.00
C135   C     0.92900   0.12610   0.21800   0.02751  Uani   1.00
C136   C     0.92818   0.03810   0.22830   0.02193  Uani   1.00
C137   C     0.90400   0.94200   0.21080   0.02531  Uani   1.00
C138   C     0.05700   0.22660   0.59200   0.02698  Uani   1.00
C139   C     0.93200   0.17940   0.23770   0.02751  Uani   1.00
C140   C     0.95440   0.24930   0.34350   0.03346  Uani   1.00
C141   C     0.98250   0.25120   0.42400   0.03129  Uani   1.00
C142   C     0.89740   0.10490   0.13830   0.03599  Uani   1.00
C143   C     0.89640   0.05130   0.14640   0.03075  Uani   1.00
C144   C     0.85470   0.94220   0.18810   0.03218  Uani   1.00
C145   C     0.92140   0.89840   0.18680   0.03392  Uani   1.00
C146   C     0.09620   0.26020   0.61410   0.04229  Uani   1.00
C147   C     0.03310   0.22790   0.63850   0.03852  Uani   1.00
C148   C     0.90350   0.21940   0.17330   0.03044  Uani   1.00
H149   H     0.93590   0.27820   0.31010   0.04000  Uiso   1.00
H150   H     0.98700   0.28120   0.45840   0.03800  Uiso   1.00
H151   H     0.88060   0.12500   0.08960   0.04300  Uiso   1.00
H152   H     0.87770   0.02660   0.10450   0.03700  Uiso   1.00
H153   H     0.84130   0.97170   0.20300   0.03900  Uiso   1.00
C154   C     0.82500   0.90030   0.14440   0.02925  Uani   1.00
C155   C     0.89210   0.85730   0.14310   0.03863  Uani   1.00
H156   H     0.95490   0.89700   0.20140   0.04100  Uiso   1.00
H157   H     0.11260   0.26060   0.58240   0.05100  Uiso   1.00
C158   C     0.11220   0.29310   0.68030   0.04257  Uani   1.00
C159   C     0.04950   0.26000   0.70590   0.04604  Uani   1.00
H160   H     0.00510   0.20640   0.62340   0.04600  Uiso   1.00
C161   C     0.92560   0.25180   0.14280   0.04057  Uani   1.00
C162   C     0.85500   0.22500   0.14660   0.07360  Uani   1.00
H163   H     0.79160   0.90120   0.13070   0.03500  Uiso   1.00
C164   C     0.84260   0.85740   0.12040   0.02709  Uani   1.00
H165   H     0.90550   0.82800   0.12770   0.04600  Uiso   1.00
H166   H     0.13920   0.31600   0.69370   0.05100  Uiso   1.00
C167   C     0.08940   0.29300   0.72720   0.02911  Uani   1.00
H168   H     0.03340   0.25960   0.73820   0.05600  Uiso   1.00
H169   H     0.95940   0.24820   0.16150   0.04900  Uiso   1.00
C170   C     0.89970   0.29050   0.08470   0.04438  Uani   1.00
C171   C     0.82930   0.26320   0.08930   0.07455  Uani   1.00
H172   H     0.83890   0.20260   0.16770   0.08800  Uiso   1.00
P173   P     0.80424   0.80319   0.06371   0.03178  Uani   1.00
P174   P     0.11018   0.33486   0.81573   0.03909  Uani   1.00
H175   H     0.91590   0.31250   0.06350   0.05400  Uiso   1.00
C176   C     0.85110   0.29690   0.05790   0.03880  Uani   1.00
H177   H     0.79540   0.26640   0.07070   0.08900  Uiso   1.00
O178   O     0.83356   0.76599   0.03860   0.03660  Uani   1.00
O179   O     0.07927   0.38398   0.79550   0.05157  Uani   1.00
O180   O     0.10212   0.30150   0.87850   0.04274  Uani   1.00
P181   P     0.81809   0.35072   0.98958   0.05556  Uani   1.00
H182   H     0.11470   0.28030   0.91640   0.05100  Uiso   1.00
O183   O     0.84015   0.35800   0.93190   0.06110  Uani   1.00
O184   O     0.76500   0.33400   0.94400   0.06359  Uani   1.00
O185   O     0.82450   0.39970   0.04130   0.09989  Uani   1.00
H186   H     0.74940   0.34580   0.89850   0.07600  Uiso   1.00
Zn187  Zn    0.22050   0.30213   0.88347   0.03136  Uani   1.00
O188   O     0.25214   0.30757   0.81570   0.03778  Uani   1.00
O189   O     0.26153   0.32923   0.99180   0.03315  Uani   1.00
O190   O     0.21215   0.22492   0.88060   0.03343  Uani   1.00
O191   O     0.16338   0.34665   0.84520   0.03577  Uani   1.00
P192   P     0.26000   0.34778   0.76289   0.03360  Uani   1.00
O193   O     0.27626   0.31998   0.70690   0.03819  Uani   1.00
O194   O     0.21501   0.38278   0.71440   0.03758  Uani   1.00
C195   C     0.30710   0.39170   0.82870   0.02707  Uani   1.00
H196   H     0.19730   0.37610   0.66700   0.04500  Uiso   1.00
C197   C     0.33940   0.41460   0.80580   0.03731  Uani   1.00
C198   C     0.31360   0.40490   0.90480   0.05816  Uani   1.00
C199   C     0.37450   0.44980   0.85700   0.03258  Uani   1.00
H200   H     0.33730   0.40600   0.75470   0.04500  Uiso   1.00
H201   H     0.29280   0.38890   0.92300   0.07000  Uiso   1.00
C202   C     0.34900   0.44030   0.95600   0.05398  Uani   1.00
C203   C     0.37950   0.46420   0.93130   0.02375  Uani   1.00
H204   H     0.39610   0.46480   0.83990   0.03900  Uiso   1.00
H205   H     0.35210   0.44800   0.00800   0.06500  Uiso   1.00
C206   C     0.41780   0.50190   0.98610   0.01993  Uani   1.00
C207   C     0.45830   0.48160   0.05050   0.02288  Uani   1.00
C208   C     0.41280   0.55550   0.96650   0.02209  Uani   1.00
N209   N     0.49314   0.51214   0.11180   0.02026  Uani   1.00
C210   C     0.47110   0.42600   0.06200   0.02631  Uani   1.00
N211   N     0.44678   0.59453   0.00960   0.02294  Uani   1.00
C212   C     0.37630   0.57750   0.89180   0.02342  Uani   1.00
Ni213  Ni    0.50048   0.58887   0.11717   0.02164  Uani   1.00
C214   C     0.52600   0.47500   0.16300   0.02009  Uani   1.00
C215   C     0.51320   0.42170   0.12950   0.02772  Uani   1.00
H216   H     0.45300   0.39730   0.02760   0.03100  Uiso   1.00
C217   C     0.43320   0.63840   0.95950   0.02402  Uani   1.00
H218   H     0.34800   0.55950   0.85320   0.02800  Uiso   1.00
C219   C     0.38910   0.62810   0.88600   0.02734  Uani   1.00
N220   N     0.51253   0.66483   0.11790   0.02614  Uani   1.00
N221   N     0.55080   0.58430   0.22830   0.02246  Uani   1.00
C222   C     0.56390   0.48640   0.23960   0.02446  Uani   1.00
H223   H     0.53120   0.38980   0.15140   0.03300  Uiso   1.00
C224   C     0.45800   0.68630   0.97550   0.02237  Uani   1.00
H225   H     0.37230   0.65230   0.84220   0.03300  Uiso   1.00
C226   C     0.54300   0.69680   0.18310   0.02573  Uani   1.00
C227   C     0.49560   0.69950   0.05200   0.02799  Uani   1.00
C228   C     0.57100   0.62610   0.28200   0.02751  Uani   1.00
C229   C     0.57182   0.53810   0.27170   0.02193  Uani   1.00
C230   C     0.59600   0.44200   0.28920   0.02531  Uani   1.00
C231   C     0.44300   0.72660   0.90800   0.02698  Uani   1.00
C232   C     0.56800   0.67940   0.26230   0.02751  Uani   1.00
C233   C     0.54560   0.74930   0.15650   0.03346  Uani   1.00
C234   C     0.51750   0.75120   0.07600   0.03129  Uani   1.00
C235   C     0.60260   0.60490   0.36170   0.03599  Uani   1.00
C236   C     0.60360   0.55130   0.35360   0.03075  Uani   1.00
C237   C     0.64530   0.44220   0.31190   0.03218  Uani   1.00
C238   C     0.57860   0.39840   0.31320   0.03392  Uani   1.00
C239   C     0.40380   0.76020   0.88590   0.04229  Uani   1.00
C240   C     0.46690   0.72790   0.86150   0.03852  Uani   1.00
C241   C     0.59650   0.71940   0.32670   0.03044  Uani   1.00
H242   H     0.56410   0.77820   0.18990   0.04000  Uiso   1.00
H243   H     0.51300   0.78120   0.04160   0.03800  Uiso   1.00
H244   H     0.61940   0.62500   0.41040   0.04300  Uiso   1.00
H245   H     0.62230   0.52660   0.39550   0.03700  Uiso   1.00
H246   H     0.65870   0.47170   0.29700   0.03900  Uiso   1.00
C247   C     0.67500   0.40030   0.35560   0.02925  Uani   1.00
C248   C     0.60790   0.35730   0.35690   0.03863  Uani   1.00
H249   H     0.54510   0.39700   0.29860   0.04100  Uiso   1.00
H250   H     0.38740   0.76060   0.91760   0.05100  Uiso   1.00
C251   C     0.38780   0.79310   0.81970   0.04257  Uani   1.00
C252   C     0.45050   0.76000   0.79410   0.04604  Uani   1.00
H253   H     0.49490   0.70640   0.87660   0.04600  Uiso   1.00
C254   C     0.57440   0.75180   0.35720   0.04057  Uani   1.00
C255   C     0.64500   0.72500   0.35340   0.07360  Uani   1.00
H256   H     0.70840   0.40120   0.36930   0.03500  Uiso   1.00
C257   C     0.65740   0.35740   0.37960   0.02709  Uani   1.00
H258   H     0.59450   0.32800   0.37230   0.04600  Uiso   1.00
H259   H     0.36080   0.81600   0.80630   0.05100  Uiso   1.00
C260   C     0.41060   0.79300   0.77280   0.02911  Uani   1.00
H261   H     0.46660   0.75960   0.76180   0.05600  Uiso   1.00
H262   H     0.54060   0.74820   0.33850   0.04900  Uiso   1.00
C263   C     0.60030   0.79050   0.41530   0.04438  Uani   1.00
C264   C     0.67070   0.76320   0.41070   0.07455  Uani   1.00
H265   H     0.66110   0.70260   0.33230   0.08800  Uiso   1.00
P266   P     0.69576   0.30319   0.43629   0.03178  Uani   1.00
P267   P     0.38982   0.83486   0.68427   0.03909  Uani   1.00
H268   H     0.58410   0.81250   0.43650   0.05400  Uiso   1.00
C269   C     0.64890   0.79690   0.44210   0.03880  Uani   1.00
H270   H     0.70460   0.76640   0.42930   0.08900  Uiso   1.00
O271   O     0.66644   0.26599   0.46140   0.03660  Uani   1.00
O272   O     0.42073   0.88398   0.70450   0.05157  Uani   1.00
O273   O     0.39788   0.80150   0.62150   0.04274  Uani   1.00
P274   P     0.68191   0.85072   0.51042   0.05556  Uani   1.00
H275   H     0.38530   0.78030   0.58360   0.05100  Uiso   1.00
O276   O     0.65985   0.85800   0.56810   0.06110  Uani   1.00
O277   O     0.73500   0.83400   0.55600   0.06359  Uani   1.00
O278   O     0.67550   0.89970   0.45870   0.09989  Uani   1.00
H279   H     0.75060   0.84580   0.60150   0.07600  Uiso   1.00
Zn280  Zn    0.72050   0.80213   0.88347   0.03136  Uani   1.00
O281   O     0.75214   0.80757   0.81570   0.03778  Uani   1.00
O282   O     0.76153   0.82923   0.99180   0.03315  Uani   1.00
O283   O     0.71215   0.72492   0.88060   0.03343  Uani   1.00
O284   O     0.66338   0.84665   0.84520   0.03577  Uani   1.00
P285   P     0.76000   0.84778   0.76289   0.03360  Uani   1.00
O286   O     0.77626   0.81998   0.70690   0.03819  Uani   1.00
O287   O     0.71501   0.88278   0.71440   0.03758  Uani   1.00
C288   C     0.80710   0.89170   0.82870   0.02707  Uani   1.00
H289   H     0.69730   0.87610   0.66700   0.04500  Uiso   1.00
C290   C     0.83940   0.91460   0.80580   0.03731  Uani   1.00
C291   C     0.81360   0.90490   0.90480   0.05816  Uani   1.00
C292   C     0.87450   0.94980   0.85700   0.03258  Uani   1.00
H293   H     0.83730   0.90600   0.75470   0.04500  Uiso   1.00
H294   H     0.79280   0.88890   0.92300   0.07000  Uiso   1.00
C295   C     0.84900   0.94030   0.95600   0.05398  Uani   1.00
C296   C     0.87950   0.96420   0.93130   0.02375  Uani   1.00
H297   H     0.89610   0.96480   0.83990   0.03900  Uiso   1.00
H298   H     0.85210   0.94800   0.00800   0.06500  Uiso   1.00
C299   C     0.91780   0.00190   0.98610   0.01993  Uani   1.00
C300   C     0.95830   0.98160   0.05050   0.02288  Uani   1.00
C301   C     0.91280   0.05550   0.96650   0.02209  Uani   1.00
N302   N     0.99314   0.01214   0.11180   0.02026  Uani   1.00
C303   C     0.97110   0.92600   0.06200   0.02631  Uani   1.00
N304   N     0.94678   0.09453   0.00960   0.02294  Uani   1.00
C305   C     0.87630   0.07750   0.89180   0.02342  Uani   1.00
Ni306  Ni    0.00048   0.08887   0.11717   0.02164  Uani   1.00
C307   C     0.02600   0.97500   0.16300   0.02009  Uani   1.00
C308   C     0.01320   0.92170   0.12950   0.02772  Uani   1.00
H309   H     0.95300   0.89730   0.02760   0.03100  Uiso   1.00
C310   C     0.93320   0.13840   0.95950   0.02402  Uani   1.00
H311   H     0.84800   0.05950   0.85320   0.02800  Uiso   1.00
C312   C     0.88910   0.12810   0.88600   0.02734  Uani   1.00
N313   N     0.01253   0.16483   0.11790   0.02614  Uani   1.00
N314   N     0.05080   0.08430   0.22830   0.02246  Uani   1.00
C315   C     0.06390   0.98640   0.23960   0.02446  Uani   1.00
H316   H     0.03120   0.88980   0.15140   0.03300  Uiso   1.00
C317   C     0.95800   0.18630   0.97550   0.02237  Uani   1.00
H318   H     0.87230   0.15230   0.84220   0.03300  Uiso   1.00
C319   C     0.04300   0.19680   0.18310   0.02573  Uani   1.00
C320   C     0.99560   0.19950   0.05200   0.02799  Uani   1.00
C321   C     0.07100   0.12610   0.28200   0.02751  Uani   1.00
C322   C     0.07182   0.03810   0.27170   0.02193  Uani   1.00
C323   C     0.09600   0.94200   0.28920   0.02531  Uani   1.00
C324   C     0.94300   0.22660   0.90800   0.02698  Uani   1.00
C325   C     0.06800   0.17940   0.26230   0.02751  Uani   1.00
C326   C     0.04560   0.24930   0.15650   0.03346  Uani   1.00
C327   C     0.01750   0.25120   0.07600   0.03129  Uani   1.00
C328   C     0.10260   0.10490   0.36170   0.03599  Uani   1.00
C329   C     0.10360   0.05130   0.35360   0.03075  Uani   1.00
C330   C     0.14530   0.94220   0.31190   0.03218  Uani   1.00
C331   C     0.07860   0.89840   0.31320   0.03392  Uani   1.00
C332   C     0.90380   0.26020   0.88590   0.04229  Uani   1.00
C333   C     0.96690   0.22790   0.86150   0.03852  Uani   1.00
C334   C     0.09650   0.21940   0.32670   0.03044  Uani   1.00
H335   H     0.06410   0.27820   0.18990   0.04000  Uiso   1.00
H336   H     0.01300   0.28120   0.04160   0.03800  Uiso   1.00
H337   H     0.11940   0.12500   0.41040   0.04300  Uiso   1.00
H338   H     0.12230   0.02660   0.39550   0.03700  Uiso   1.00
H339   H     0.15870   0.97170   0.29700   0.03900  Uiso   1.00
C340   C     0.17500   0.90030   0.35560   0.02925  Uani   1.00
C341   C     0.10790   0.85730   0.35690   0.03863  Uani   1.00
H342   H     0.04510   0.89700   0.29860   0.04100  Uiso   1.00
H343   H     0.88740   0.26060   0.91760   0.05100  Uiso   1.00
C344   C     0.88780   0.29310   0.81970   0.04257  Uani   1.00
C345   C     0.95050   0.26000   0.79410   0.04604  Uani   1.00
H346   H     0.99490   0.20640   0.87660   0.04600  Uiso   1.00
C347   C     0.07440   0.25180   0.35720   0.04057  Uani   1.00
C348   C     0.14500   0.22500   0.35340   0.07360  Uani   1.00
H349   H     0.20840   0.90120   0.36930   0.03500  Uiso   1.00
C350   C     0.15740   0.85740   0.37960   0.02709  Uani   1.00
H351   H     0.09450   0.82800   0.37230   0.04600  Uiso   1.00
H352   H     0.86080   0.31600   0.80630   0.05100  Uiso   1.00
C353   C     0.91060   0.29300   0.77280   0.02911  Uani   1.00
H354   H     0.96660   0.25960   0.76180   0.05600  Uiso   1.00
H355   H     0.04060   0.24820   0.33850   0.04900  Uiso   1.00
C356   C     0.10030   0.29050   0.41530   0.04438  Uani   1.00
C357   C     0.17070   0.26320   0.41070   0.07455  Uani   1.00
H358   H     0.16110   0.20260   0.33230   0.08800  Uiso   1.00
P359   P     0.19576   0.80319   0.43629   0.03178  Uani   1.00
P360   P     0.88982   0.33486   0.68427   0.03909  Uani   1.00
H361   H     0.08410   0.31250   0.43650   0.05400  Uiso   1.00
C362   C     0.14890   0.29690   0.44210   0.03880  Uani   1.00
H363   H     0.20460   0.26640   0.42930   0.08900  Uiso   1.00
O364   O     0.16644   0.76599   0.46140   0.03660  Uani   1.00
O365   O     0.92073   0.38398   0.70450   0.05157  Uani   1.00
O366   O     0.89788   0.30150   0.62150   0.04274  Uani   1.00
P367   P     0.18191   0.35072   0.51042   0.05556  Uani   1.00
H368   H     0.88530   0.28030   0.58360   0.05100  Uiso   1.00
O369   O     0.15985   0.35800   0.56810   0.06110  Uani   1.00
O370   O     0.23500   0.33400   0.55600   0.06359  Uani   1.00
O371   O     0.17550   0.39970   0.45870   0.09989  Uani   1.00
H372   H     0.25060   0.34580   0.60150   0.07600  Uiso   1.00
Zn373  Zn    0.22050   0.69787   0.38347   0.03136  Uani   1.00
O374   O     0.25214   0.69243   0.31570   0.03778  Uani   1.00
O375   O     0.26153   0.67077   0.49180   0.03315  Uani   1.00
O376   O     0.21215   0.77508   0.38060   0.03343  Uani   1.00
O377   O     0.16338   0.65335   0.34520   0.03577  Uani   1.00
P378   P     0.26000   0.65222   0.26289   0.03360  Uani   1.00
O379   O     0.27626   0.68002   0.20690   0.03819  Uani   1.00
O380   O     0.21501   0.61722   0.21440   0.03758  Uani   1.00
C381   C     0.30710   0.60830   0.32870   0.02707  Uani   1.00
H382   H     0.19730   0.62390   0.16700   0.04500  Uiso   1.00
C383   C     0.33940   0.58540   0.30580   0.03731  Uani   1.00
C384   C     0.31360   0.59510   0.40480   0.05816  Uani   1.00
C385   C     0.37450   0.55020   0.35700   0.03258  Uani   1.00
H386   H     0.33730   0.59400   0.25470   0.04500  Uiso   1.00
H387   H     0.29280   0.61110   0.42300   0.07000  Uiso   1.00
C388   C     0.34900   0.55970   0.45600   0.05398  Uani   1.00
C389   C     0.37950   0.53580   0.43130   0.02375  Uani   1.00
H390   H     0.39610   0.53520   0.33990   0.03900  Uiso   1.00
H391   H     0.35210   0.55200   0.50800   0.06500  Uiso   1.00
C392   C     0.41780   0.49810   0.48610   0.01993  Uani   1.00
C393   C     0.45830   0.51840   0.55050   0.02288  Uani   1.00
C394   C     0.41280   0.44450   0.46650   0.02209  Uani   1.00
N395   N     0.49314   0.48786   0.61180   0.02026  Uani   1.00
C396   C     0.47110   0.57400   0.56200   0.02631  Uani   1.00
N397   N     0.44678   0.40547   0.50960   0.02294  Uani   1.00
C398   C     0.37630   0.42250   0.39180   0.02342  Uani   1.00
Ni399  Ni    0.50048   0.41113   0.61717   0.02164  Uani   1.00
C400   C     0.52600   0.52500   0.66300   0.02009  Uani   1.00
C401   C     0.51320   0.57830   0.62950   0.02772  Uani   1.00
H402   H     0.45300   0.60270   0.52760   0.03100  Uiso   1.00
C403   C     0.43320   0.36160   0.45950   0.02402  Uani   1.00
H404   H     0.34800   0.44050   0.35320   0.02800  Uiso   1.00
C405   C     0.38910   0.37190   0.38600   0.02734  Uani   1.00
N406   N     0.51253   0.33517   0.61790   0.02614  Uani   1.00
N407   N     0.55080   0.41570   0.72830   0.02246  Uani   1.00
C408   C     0.56390   0.51360   0.73960   0.02446  Uani   1.00
H409   H     0.53120   0.61020   0.65140   0.03300  Uiso   1.00
C410   C     0.45800   0.31370   0.47550   0.02237  Uani   1.00
H411   H     0.37230   0.34770   0.34220   0.03300  Uiso   1.00
C412   C     0.54300   0.30320   0.68310   0.02573  Uani   1.00
C413   C     0.49560   0.30050   0.55200   0.02799  Uani   1.00
C414   C     0.57100   0.37390   0.78200   0.02751  Uani   1.00
C415   C     0.57182   0.46190   0.77170   0.02193  Uani   1.00
C416   C     0.59600   0.55800   0.78920   0.02531  Uani   1.00
C417   C     0.44300   0.27340   0.40800   0.02698  Uani   1.00
C418   C     0.56800   0.32060   0.76230   0.02751  Uani   1.00
C419   C     0.54560   0.25070   0.65650   0.03346  Uani   1.00
C420   C     0.51750   0.24880   0.57600   0.03129  Uani   1.00
C421   C     0.60260   0.39510   0.86170   0.03599  Uani   1.00
C422   C     0.60360   0.44870   0.85360   0.03075  Uani   1.00
C423   C     0.64530   0.55780   0.81190   0.03218  Uani   1.00
C424   C     0.57860   0.60160   0.81320   0.03392  Uani   1.00
C425   C     0.40380   0.23980   0.38590   0.04229  Uani   1.00
C426   C     0.46690   0.27210   0.36150   0.03852  Uani   1.00
C427   C     0.59650   0.28060   0.82670   0.03044  Uani   1.00
H428   H     0.56410   0.22180   0.68990   0.04000  Uiso   1.00
H429   H     0.51300   0.21880   0.54160   0.03800  Uiso   1.00
H430   H     0.61940   0.37500   0.91040   0.04300  Uiso   1.00
H431   H     0.62230   0.47340   0.89550   0.03700  Uiso   1.00
H432   H     0.65870   0.52830   0.79700   0.03900  Uiso   1.00
C433   C     0.67500   0.59970   0.85560   0.02925  Uani   1.00
C434   C     0.60790   0.64270   0.85690   0.03863  Uani   1.00
H435   H     0.54510   0.60300   0.79860   0.04100  Uiso   1.00
H436   H     0.38740   0.23940   0.41760   0.05100  Uiso   1.00
C437   C     0.38780   0.20690   0.31970   0.04257  Uani   1.00
C438   C     0.45050   0.24000   0.29410   0.04604  Uani   1.00
H439   H     0.49490   0.29360   0.37660   0.04600  Uiso   1.00
C440   C     0.57440   0.24820   0.85720   0.04057  Uani   1.00
C441   C     0.64500   0.27500   0.85340   0.07360  Uani   1.00
H442   H     0.70840   0.59880   0.86930   0.03500  Uiso   1.00
C443   C     0.65740   0.64260   0.87960   0.02709  Uani   1.00
H444   H     0.59450   0.67200   0.87230   0.04600  Uiso   1.00
H445   H     0.36080   0.18400   0.30630   0.05100  Uiso   1.00
C446   C     0.41060   0.20700   0.27280   0.02911  Uani   1.00
H447   H     0.46660   0.24040   0.26180   0.05600  Uiso   1.00
H448   H     0.54060   0.25180   0.83850   0.04900  Uiso   1.00
C449   C     0.60030   0.20950   0.91530   0.04438  Uani   1.00
C450   C     0.67070   0.23680   0.91070   0.07455  Uani   1.00
H451   H     0.66110   0.29740   0.83230   0.08800  Uiso   1.00
P452   P     0.69576   0.69681   0.93629   0.03178  Uani   1.00
P453   P     0.38982   0.16514   0.18427   0.03909  Uani   1.00
H454   H     0.58410   0.18750   0.93650   0.05400  Uiso   1.00
C455   C     0.64890   0.20310   0.94210   0.03880  Uani   1.00
H456   H     0.70460   0.23360   0.92930   0.08900  Uiso   1.00
O457   O     0.66644   0.73401   0.96140   0.03660  Uani   1.00
O458   O     0.42073   0.11602   0.20450   0.05157  Uani   1.00
O459   O     0.39788   0.19850   0.12150   0.04274  Uani   1.00
P460   P     0.68191   0.14928   0.01042   0.05556  Uani   1.00
H461   H     0.38530   0.21970   0.08360   0.05100  Uiso   1.00
O462   O     0.65985   0.14200   0.06810   0.06110  Uani   1.00
O463   O     0.73500   0.16600   0.05600   0.06359  Uani   1.00
O464   O     0.67550   0.10030   0.95870   0.09989  Uani   1.00
H465   H     0.75060   0.15420   0.10150   0.07600  Uiso   1.00
Zn466  Zn    0.72050   0.19787   0.38347   0.03136  Uani   1.00
O467   O     0.75214   0.19243   0.31570   0.03778  Uani   1.00
O468   O     0.76153   0.17077   0.49180   0.03315  Uani   1.00
O469   O     0.71215   0.27508   0.38060   0.03343  Uani   1.00
O470   O     0.66338   0.15335   0.34520   0.03577  Uani   1.00
P471   P     0.76000   0.15222   0.26289   0.03360  Uani   1.00
O472   O     0.77626   0.18002   0.20690   0.03819  Uani   1.00
O473   O     0.71501   0.11722   0.21440   0.03758  Uani   1.00
C474   C     0.80710   0.10830   0.32870   0.02707  Uani   1.00
H475   H     0.69730   0.12390   0.16700   0.04500  Uiso   1.00
C476   C     0.83940   0.08540   0.30580   0.03731  Uani   1.00
C477   C     0.81360   0.09510   0.40480   0.05816  Uani   1.00
C478   C     0.87450   0.05020   0.35700   0.03258  Uani   1.00
H479   H     0.83730   0.09400   0.25470   0.04500  Uiso   1.00
H480   H     0.79280   0.11110   0.42300   0.07000  Uiso   1.00
C481   C     0.84900   0.05970   0.45600   0.05398  Uani   1.00
C482   C     0.87950   0.03580   0.43130   0.02375  Uani   1.00
H483   H     0.89610   0.03520   0.33990   0.03900  Uiso   1.00
H484   H     0.85210   0.05200   0.50800   0.06500  Uiso   1.00
C485   C     0.91780   0.99810   0.48610   0.01993  Uani   1.00
C486   C     0.95830   0.01840   0.55050   0.02288  Uani   1.00
C487   C     0.91280   0.94450   0.46650   0.02209  Uani   1.00
N488   N     0.99314   0.98786   0.61180   0.02026  Uani   1.00
C489   C     0.97110   0.07400   0.56200   0.02631  Uani   1.00
N490   N     0.94678   0.90547   0.50960   0.02294  Uani   1.00
C491   C     0.87630   0.92250   0.39180   0.02342  Uani   1.00
Ni492  Ni    0.00048   0.91113   0.61717   0.02164  Uani   1.00
C493   C     0.02600   0.02500   0.66300   0.02009  Uani   1.00
C494   C     0.01320   0.07830   0.62950   0.02772  Uani   1.00
H495   H     0.95300   0.10270   0.52760   0.03100  Uiso   1.00
C496   C     0.93320   0.86160   0.45950   0.02402  Uani   1.00
H497   H     0.84800   0.94050   0.35320   0.02800  Uiso   1.00
C498   C     0.88910   0.87190   0.38600   0.02734  Uani   1.00
N499   N     0.01253   0.83517   0.61790   0.02614  Uani   1.00
N500   N     0.05080   0.91570   0.72830   0.02246  Uani   1.00
C501   C     0.06390   0.01360   0.73960   0.02446  Uani   1.00
H502   H     0.03120   0.11020   0.65140   0.03300  Uiso   1.00
C503   C     0.95800   0.81370   0.47550   0.02237  Uani   1.00
H504   H     0.87230   0.84770   0.34220   0.03300  Uiso   1.00
C505   C     0.04300   0.80320   0.68310   0.02573  Uani   1.00
C506   C     0.99560   0.80050   0.55200   0.02799  Uani   1.00
C507   C     0.07100   0.87390   0.78200   0.02751  Uani   1.00
C508   C     0.07182   0.96190   0.77170   0.02193  Uani   1.00
C509   C     0.09600   0.05800   0.78920   0.02531  Uani   1.00
C510   C     0.94300   0.77340   0.40800   0.02698  Uani   1.00
C511   C     0.06800   0.82060   0.76230   0.02751  Uani   1.00
C512   C     0.04560   0.75070   0.65650   0.03346  Uani   1.00
C513   C     0.01750   0.74880   0.57600   0.03129  Uani   1.00
C514   C     0.10260   0.89510   0.86170   0.03599  Uani   1.00
C515   C     0.10360   0.94870   0.85360   0.03075  Uani   1.00
C516   C     0.14530   0.05780   0.81190   0.03218  Uani   1.00
C517   C     0.07860   0.10160   0.81320   0.03392  Uani   1.00
C518   C     0.90380   0.73980   0.38590   0.04229  Uani   1.00
C519   C     0.96690   0.77210   0.36150   0.03852  Uani   1.00
C520   C     0.09650   0.78060   0.82670   0.03044  Uani   1.00
H521   H     0.06410   0.72180   0.68990   0.04000  Uiso   1.00
H522   H     0.01300   0.71880   0.54160   0.03800  Uiso   1.00
H523   H     0.11940   0.87500   0.91040   0.04300  Uiso   1.00
H524   H     0.12230   0.97340   0.89550   0.03700  Uiso   1.00
H525   H     0.15870   0.02830   0.79700   0.03900  Uiso   1.00
C526   C     0.17500   0.09970   0.85560   0.02925  Uani   1.00
C527   C     0.10790   0.14270   0.85690   0.03863  Uani   1.00
H528   H     0.04510   0.10300   0.79860   0.04100  Uiso   1.00
H529   H     0.88740   0.73940   0.41760   0.05100  Uiso   1.00
C530   C     0.88780   0.70690   0.31970   0.04257  Uani   1.00
C531   C     0.95050   0.74000   0.29410   0.04604  Uani   1.00
H532   H     0.99490   0.79360   0.37660   0.04600  Uiso   1.00
C533   C     0.07440   0.74820   0.85720   0.04057  Uani   1.00
C534   C     0.14500   0.77500   0.85340   0.07360  Uani   1.00
H535   H     0.20840   0.09880   0.86930   0.03500  Uiso   1.00
C536   C     0.15740   0.14260   0.87960   0.02709  Uani   1.00
H537   H     0.09450   0.17200   0.87230   0.04600  Uiso   1.00
H538   H     0.86080   0.68400   0.30630   0.05100  Uiso   1.00
C539   C     0.91060   0.70700   0.27280   0.02911  Uani   1.00
H540   H     0.96660   0.74040   0.26180   0.05600  Uiso   1.00
H541   H     0.04060   0.75180   0.83850   0.04900  Uiso   1.00
C542   C     0.10030   0.70950   0.91530   0.04438  Uani   1.00
C543   C     0.17070   0.73680   0.91070   0.07455  Uani   1.00
H544   H     0.16110   0.79740   0.83230   0.08800  Uiso   1.00
P545   P     0.19576   0.19681   0.93629   0.03178  Uani   1.00
P546   P     0.88982   0.66514   0.18427   0.03909  Uani   1.00
H547   H     0.08410   0.68750   0.93650   0.05400  Uiso   1.00
C548   C     0.14890   0.70310   0.94210   0.03880  Uani   1.00
H549   H     0.20460   0.73360   0.92930   0.08900  Uiso   1.00
O550   O     0.16644   0.23401   0.96140   0.03660  Uani   1.00
O551   O     0.92073   0.61602   0.20450   0.05157  Uani   1.00
O552   O     0.89788   0.69850   0.12150   0.04274  Uani   1.00
P553   P     0.18191   0.64928   0.01042   0.05556  Uani   1.00
H554   H     0.88530   0.71970   0.08360   0.05100  Uiso   1.00
O555   O     0.15985   0.64200   0.06810   0.06110  Uani   1.00
O556   O     0.23500   0.66600   0.05600   0.06359  Uani   1.00
O557   O     0.17550   0.60030   0.95870   0.09989  Uani   1.00
H558   H     0.25060   0.65420   0.10150   0.07600  Uiso   1.00
Zn559  Zn    0.77950   0.69787   0.11653   0.03136  Uani   1.00
O560   O     0.74786   0.69243   0.18430   0.03778  Uani   1.00
O561   O     0.73847   0.67077   0.00820   0.03315  Uani   1.00
O562   O     0.78785   0.77508   0.11940   0.03343  Uani   1.00
O563   O     0.83662   0.65335   0.15480   0.03577  Uani   1.00
P564   P     0.74000   0.65222   0.23711   0.03360  Uani   1.00
O565   O     0.72374   0.68002   0.29310   0.03819  Uani   1.00
O566   O     0.78499   0.61722   0.28560   0.03758  Uani   1.00
C567   C     0.69290   0.60830   0.17130   0.02707  Uani   1.00
H568   H     0.80270   0.62390   0.33300   0.04500  Uiso   1.00
C569   C     0.66060   0.58540   0.19420   0.03731  Uani   1.00
C570   C     0.68640   0.59510   0.09520   0.05816  Uani   1.00
C571   C     0.62550   0.55020   0.14300   0.03258  Uani   1.00
H572   H     0.66270   0.59400   0.24530   0.04500  Uiso   1.00
H573   H     0.70720   0.61110   0.07700   0.07000  Uiso   1.00
C574   C     0.65100   0.55970   0.04400   0.05398  Uani   1.00
C575   C     0.62050   0.53580   0.06870   0.02375  Uani   1.00
H576   H     0.60390   0.53520   0.16010   0.03900  Uiso   1.00
H577   H     0.64790   0.55200   0.99200   0.06500  Uiso   1.00
C578   C     0.58220   0.49810   0.01390   0.01993  Uani   1.00
C579   C     0.54170   0.51840   0.94950   0.02288  Uani   1.00
C580   C     0.58720   0.44450   0.03350   0.02209  Uani   1.00
N581   N     0.50686   0.48786   0.88820   0.02026  Uani   1.00
C582   C     0.52890   0.57400   0.93800   0.02631  Uani   1.00
N583   N     0.55322   0.40547   0.99040   0.02294  Uani   1.00
C584   C     0.62370   0.42250   0.10820   0.02342  Uani   1.00
Ni585  Ni    0.49952   0.41113   0.88283   0.02164  Uani   1.00
C586   C     0.47400   0.52500   0.83700   0.02009  Uani   1.00
C587   C     0.48680   0.57830   0.87050   0.02772  Uani   1.00
H588   H     0.54700   0.60270   0.97240   0.03100  Uiso   1.00
C589   C     0.56680   0.36160   0.04050   0.02402  Uani   1.00
H590   H     0.65200   0.44050   0.14680   0.02800  Uiso   1.00
C591   C     0.61090   0.37190   0.11400   0.02734  Uani   1.00
N592   N     0.48747   0.33517   0.88210   0.02614  Uani   1.00
N593   N     0.44920   0.41570   0.77170   0.02246  Uani   1.00
C594   C     0.43610   0.51360   0.76040   0.02446  Uani   1.00
H595   H     0.46880   0.61020   0.84860   0.03300  Uiso   1.00
C596   C     0.54200   0.31370   0.02450   0.02237  Uani   1.00
H597   H     0.62770   0.34770   0.15780   0.03300  Uiso   1.00
C598   C     0.45700   0.30320   0.81690   0.02573  Uani   1.00
C599   C     0.50440   0.30050   0.94800   0.02799  Uani   1.00
C600   C     0.42900   0.37390   0.71800   0.02751  Uani   1.00
C601   C     0.42818   0.46190   0.72830   0.02193  Uani   1.00
C602   C     0.40400   0.55800   0.71080   0.02531  Uani   1.00
C603   C     0.55700   0.27340   0.09200   0.02698  Uani   1.00
C604   C     0.43200   0.32060   0.73770   0.02751  Uani   1.00
C605   C     0.45440   0.25070   0.84350   0.03346  Uani   1.00
C606   C     0.48250   0.24880   0.92400   0.03129  Uani   1.00
C607   C     0.39740   0.39510   0.63830   0.03599  Uani   1.00
C608   C     0.39640   0.44870   0.64640   0.03075  Uani   1.00
C609   C     0.35470   0.55780   0.68810   0.03218  Uani   1.00
C610   C     0.42140   0.60160   0.68680   0.03392  Uani   1.00
C611   C     0.59620   0.23980   0.11410   0.04229  Uani   1.00
C612   C     0.53310   0.27210   0.13850   0.03852  Uani   1.00
C613   C     0.40350   0.28060   0.67330   0.03044  Uani   1.00
H614   H     0.43590   0.22180   0.81010   0.04000  Uiso   1.00
H615   H     0.48700   0.21880   0.95840   0.03800  Uiso   1.00
H616   H     0.38060   0.37500   0.58960   0.04300  Uiso   1.00
H617   H     0.37770   0.47340   0.60450   0.03700  Uiso   1.00
H618   H     0.34130   0.52830   0.70300   0.03900  Uiso   1.00
C619   C     0.32500   0.59970   0.64440   0.02925  Uani   1.00
C620   C     0.39210   0.64270   0.64310   0.03863  Uani   1.00
H621   H     0.45490   0.60300   0.70140   0.04100  Uiso   1.00
H622   H     0.61260   0.23940   0.08240   0.05100  Uiso   1.00
C623   C     0.61220   0.20690   0.18030   0.04257  Uani   1.00
C624   C     0.54950   0.24000   0.20590   0.04604  Uani   1.00
H625   H     0.50510   0.29360   0.12340   0.04600  Uiso   1.00
C626   C     0.42560   0.24820   0.64280   0.04057  Uani   1.00
C627   C     0.35500   0.27500   0.64660   0.07360  Uani   1.00
H628   H     0.29160   0.59880   0.63070   0.03500  Uiso   1.00
C629   C     0.34260   0.64260   0.62040   0.02709  Uani   1.00
H630   H     0.40550   0.67200   0.62770   0.04600  Uiso   1.00
H631   H     0.63920   0.18400   0.19370   0.05100  Uiso   1.00
C632   C     0.58940   0.20700   0.22720   0.02911  Uani   1.00
H633   H     0.53340   0.24040   0.23820   0.05600  Uiso   1.00
H634   H     0.45940   0.25180   0.66150   0.04900  Uiso   1.00
C635   C     0.39970   0.20950   0.58470   0.04438  Uani   1.00
C636   C     0.32930   0.23680   0.58930   0.07455  Uani   1.00
H637   H     0.33890   0.29740   0.66770   0.08800  Uiso   1.00
P638   P     0.30424   0.69681   0.56371   0.03178  Uani   1.00
P639   P     0.61018   0.16514   0.31573   0.03909  Uani   1.00
H640   H     0.41590   0.18750   0.56350   0.05400  Uiso   1.00
C641   C     0.35110   0.20310   0.55790   0.03880  Uani   1.00
H642   H     0.29540   0.23360   0.57070   0.08900  Uiso   1.00
O643   O     0.33356   0.73401   0.53860   0.03660  Uani   1.00
O644   O     0.57927   0.11602   0.29550   0.05157  Uani   1.00
O645   O     0.60212   0.19850   0.37850   0.04274  Uani   1.00
P646   P     0.31809   0.14928   0.48958   0.05556  Uani   1.00
H647   H     0.61470   0.21970   0.41640   0.05100  Uiso   1.00
O648   O     0.34015   0.14200   0.43190   0.06110  Uani   1.00
O649   O     0.26500   0.16600   0.44400   0.06359  Uani   1.00
O650   O     0.32450   0.10030   0.54130   0.09989  Uani   1.00
H651   H     0.24940   0.15420   0.39850   0.07600  Uiso   1.00
Zn652  Zn    0.27950   0.19787   0.11653   0.03136  Uani   1.00
O653   O     0.24786   0.19243   0.18430   0.03778  Uani   1.00
O654   O     0.23847   0.17077   0.00820   0.03315  Uani   1.00
O655   O     0.28785   0.27508   0.11940   0.03343  Uani   1.00
O656   O     0.33662   0.15335   0.15480   0.03577  Uani   1.00
P657   P     0.24000   0.15222   0.23711   0.03360  Uani   1.00
O658   O     0.22374   0.18002   0.29310   0.03819  Uani   1.00
O659   O     0.28499   0.11722   0.28560   0.03758  Uani   1.00
C660   C     0.19290   0.10830   0.17130   0.02707  Uani   1.00
H661   H     0.30270   0.12390   0.33300   0.04500  Uiso   1.00
C662   C     0.16060   0.08540   0.19420   0.03731  Uani   1.00
C663   C     0.18640   0.09510   0.09520   0.05816  Uani   1.00
C664   C     0.12550   0.05020   0.14300   0.03258  Uani   1.00
H665   H     0.16270   0.09400   0.24530   0.04500  Uiso   1.00
H666   H     0.20720   0.11110   0.07700   0.07000  Uiso   1.00
C667   C     0.15100   0.05970   0.04400   0.05398  Uani   1.00
C668   C     0.12050   0.03580   0.06870   0.02375  Uani   1.00
H669   H     0.10390   0.03520   0.16010   0.03900  Uiso   1.00
H670   H     0.14790   0.05200   0.99200   0.06500  Uiso   1.00
C671   C     0.08220   0.99810   0.01390   0.01993  Uani   1.00
C672   C     0.04170   0.01840   0.94950   0.02288  Uani   1.00
C673   C     0.08720   0.94450   0.03350   0.02209  Uani   1.00
N674   N     0.00686   0.98786   0.88820   0.02026  Uani   1.00
C675   C     0.02890   0.07400   0.93800   0.02631  Uani   1.00
N676   N     0.05322   0.90547   0.99040   0.02294  Uani   1.00
C677   C     0.12370   0.92250   0.10820   0.02342  Uani   1.00
Ni678  Ni    0.99952   0.91113   0.88283   0.02164  Uani   1.00
C679   C     0.97400   0.02500   0.83700   0.02009  Uani   1.00
C680   C     0.98680   0.07830   0.87050   0.02772  Uani   1.00
H681   H     0.04700   0.10270   0.97240   0.03100  Uiso   1.00
C682   C     0.06680   0.86160   0.04050   0.02402  Uani   1.00
H683   H     0.15200   0.94050   0.14680   0.02800  Uiso   1.00
C684   C     0.11090   0.87190   0.11400   0.02734  Uani   1.00
N685   N     0.98747   0.83517   0.88210   0.02614  Uani   1.00
N686   N     0.94920   0.91570   0.77170   0.02246  Uani   1.00
C687   C     0.93610   0.01360   0.76040   0.02446  Uani   1.00
H688   H     0.96880   0.11020   0.84860   0.03300  Uiso   1.00
C689   C     0.04200   0.81370   0.02450   0.02237  Uani   1.00
H690   H     0.12770   0.84770   0.15780   0.03300  Uiso   1.00
C691   C     0.95700   0.80320   0.81690   0.02573  Uani   1.00
C692   C     0.00440   0.80050   0.94800   0.02799  Uani   1.00
C693   C     0.92900   0.87390   0.71800   0.02751  Uani   1.00
C694   C     0.92818   0.96190   0.72830   0.02193  Uani   1.00
C695   C     0.90400   0.05800   0.71080   0.02531  Uani   1.00
C696   C     0.05700   0.77340   0.09200   0.02698  Uani   1.00
C697   C     0.93200   0.82060   0.73770   0.02751  Uani   1.00
C698   C     0.95440   0.75070   0.84350   0.03346  Uani   1.00
C699   C     0.98250   0.74880   0.92400   0.03129  Uani   1.00
C700   C     0.89740   0.89510   0.63830   0.03599  Uani   1.00
C701   C     0.89640   0.94870   0.64640   0.03075  Uani   1.00
C702   C     0.85470   0.05780   0.68810   0.03218  Uani   1.00
C703   C     0.92140   0.10160   0.68680   0.03392  Uani   1.00
C704   C     0.09620   0.73980   0.11410   0.04229  Uani   1.00
C705   C     0.03310   0.77210   0.13850   0.03852  Uani   1.00
C706   C     0.90350   0.78060   0.67330   0.03044  Uani   1.00
H707   H     0.93590   0.72180   0.81010   0.04000  Uiso   1.00
H708   H     0.98700   0.71880   0.95840   0.03800  Uiso   1.00
H709   H     0.88060   0.87500   0.58960   0.04300  Uiso   1.00
H710   H     0.87770   0.97340   0.60450   0.03700  Uiso   1.00
H711   H     0.84130   0.02830   0.70300   0.03900  Uiso   1.00
C712   C     0.82500   0.09970   0.64440   0.02925  Uani   1.00
C713   C     0.89210   0.14270   0.64310   0.03863  Uani   1.00
H714   H     0.95490   0.10300   0.70140   0.04100  Uiso   1.00
H715   H     0.11260   0.73940   0.08240   0.05100  Uiso   1.00
C716   C     0.11220   0.70690   0.18030   0.04257  Uani   1.00
C717   C     0.04950   0.74000   0.20590   0.04604  Uani   1.00
H718   H     0.00510   0.79360   0.12340   0.04600  Uiso   1.00
C719   C     0.92560   0.74820   0.64280   0.04057  Uani   1.00
C720   C     0.85500   0.77500   0.64660   0.07360  Uani   1.00
H721   H     0.79160   0.09880   0.63070   0.03500  Uiso   1.00
C722   C     0.84260   0.14260   0.62040   0.02709  Uani   1.00
H723   H     0.90550   0.17200   0.62770   0.04600  Uiso   1.00
H724   H     0.13920   0.68400   0.19370   0.05100  Uiso   1.00
C725   C     0.08940   0.70700   0.22720   0.02911  Uani   1.00
H726   H     0.03340   0.74040   0.23820   0.05600  Uiso   1.00
H727   H     0.95940   0.75180   0.66150   0.04900  Uiso   1.00
C728   C     0.89970   0.70950   0.58470   0.04438  Uani   1.00
C729   C     0.82930   0.73680   0.58930   0.07455  Uani   1.00
H730   H     0.83890   0.79740   0.66770   0.08800  Uiso   1.00
P731   P     0.80424   0.19681   0.56371   0.03178  Uani   1.00
P732   P     0.11018   0.66514   0.31573   0.03909  Uani   1.00
H733   H     0.91590   0.68750   0.56350   0.05400  Uiso   1.00
C734   C     0.85110   0.70310   0.55790   0.03880  Uani   1.00
H735   H     0.79540   0.73360   0.57070   0.08900  Uiso   1.00
O736   O     0.83356   0.23401   0.53860   0.03660  Uani   1.00
O737   O     0.07927   0.61602   0.29550   0.05157  Uani   1.00
O738   O     0.10212   0.69850   0.37850   0.04274  Uani   1.00
P739   P     0.81809   0.64928   0.48958   0.05556  Uani   1.00
H740   H     0.11470   0.71970   0.41640   0.05100  Uiso   1.00
O741   O     0.84015   0.64200   0.43190   0.06110  Uani   1.00
O742   O     0.76500   0.66600   0.44400   0.06359  Uani   1.00
O743   O     0.82450   0.60030   0.54130   0.09989  Uani   1.00
H744   H     0.74940   0.65420   0.39850   0.07600  Uiso   1.00
loop_
_atom_site_aniso_label
_atom_site_aniso_U_11
_atom_site_aniso_U_22
_atom_site_aniso_U_33
_atom_site_aniso_U_12
_atom_site_aniso_U_13
_atom_site_aniso_U_23
Zn1       0.02380   0.03410   0.02600   0.00940   0.00330   0.00720
O2        0.03300   0.04300   0.03400   0.01700   0.01300   0.00800
O3        0.02500   0.03400   0.02500   0.01300  -0.00100   0.01200
O4        0.04000   0.02700   0.03400   0.01800   0.01800   0.01500
O5        0.02300   0.03500   0.03800   0.00700   0.00500   0.01300
P6        0.02660   0.04030   0.02990   0.00700   0.01000   0.00760
O7        0.03300   0.04400   0.03700   0.00400   0.01600   0.01600
O8        0.03000   0.04700   0.02400   0.00200   0.00300   0.00800
C9        0.02400   0.02900   0.02700   0.00500   0.01100   0.00600
C11       0.03700   0.05700   0.01800   0.00700   0.01300   0.00500
C12       0.05900   0.07800   0.05000   0.05100   0.03600   0.03500
C13       0.03400   0.03200   0.03600   0.01400   0.02000   0.00700
C16       0.06800   0.06500   0.04700   0.04100   0.04200   0.03000
C17       0.01900   0.02600   0.02000  -0.00600   0.00400  -0.00600
C20       0.01800   0.02600   0.01300   0.00700   0.00500   0.00200
C21       0.02400   0.02700   0.01500  -0.00200   0.00700  -0.00400
C22       0.02100   0.02200   0.02100   0.00000   0.00800  -0.00300
N23       0.01500   0.02700   0.01600  -0.00600   0.00500  -0.00800
C24       0.02100   0.02400   0.03400   0.00100   0.01300  -0.00100
N25       0.02300   0.02100   0.01800  -0.00100   0.00400  -0.00500
C26       0.02100   0.02000   0.02000   0.00000   0.00200   0.00400
Ni27      0.01800   0.02520   0.01500  -0.00380   0.00220  -0.00210
C28       0.01400   0.02900   0.01600  -0.00300   0.00600  -0.00600
C29       0.02300   0.02800   0.03500  -0.01100   0.01600  -0.01200
C31       0.02000   0.01900   0.02600  -0.00500   0.00500  -0.00200
C33       0.02500   0.02800   0.01800  -0.00600   0.00100  -0.00500
N34       0.02600   0.02400   0.02200  -0.00800   0.00600  -0.00500
N35       0.02000   0.02800   0.02100  -0.01000   0.01100  -0.00300
C36       0.02300   0.02600   0.02800  -0.00600   0.01500  -0.00900
C38       0.01600   0.02200   0.02100  -0.00700   0.00200  -0.00000
C40       0.01800   0.02700   0.02200  -0.00100   0.00100   0.00500
C41       0.01900   0.04000   0.01900  -0.01000   0.00400  -0.01500
C42       0.01800   0.04000   0.01700  -0.00600   0.00200   0.00600
C43       0.01300   0.02800   0.02300  -0.00400   0.00700  -0.00400
C44       0.02700   0.02500   0.02300  -0.00600   0.01100  -0.00500
C45       0.02800   0.01800   0.02100   0.00400  -0.00000  -0.00200
C46       0.01600   0.03000   0.02300  -0.00600  -0.00200   0.00700
C47       0.02900   0.02300   0.03500   0.00200   0.00400  -0.00100
C48       0.02500   0.02700   0.02800   0.00200   0.00100  -0.00100
C49       0.03400   0.04600   0.01800  -0.00800   0.00400   0.00400
C50       0.02400   0.04700   0.01500  -0.01200   0.00400  -0.00900
C51       0.02000   0.03700   0.03200   0.00500   0.00600  -0.00200
C52       0.02600   0.04200   0.02900  -0.01500   0.00900  -0.01800
C53       0.04000   0.04700   0.04100  -0.02000   0.02000  -0.01100
C54       0.02600   0.04900   0.03900  -0.01000   0.01400  -0.01500
C55       0.01900   0.03600   0.02500   0.00100   0.00100   0.01200
C61       0.00900   0.04400   0.02600  -0.01000   0.00100  -0.01200
C62       0.04500   0.03300   0.04400  -0.00600   0.02600  -0.01500
C65       0.03500   0.04700   0.04100  -0.01700   0.01400  -0.02600
C66       0.03800   0.06300   0.04400  -0.01300   0.02500  -0.02500
C68       0.03000   0.05000   0.03900   0.01000   0.01400   0.01800
C69       0.03500   0.09800   0.07000  -0.00200   0.01000   0.05600
C71       0.02200   0.03300   0.02500  -0.00200   0.01000  -0.00200
C74       0.01700   0.03200   0.02700   0.00000   0.00100  -0.00500
C77       0.04100   0.05200   0.04100   0.01000   0.02000   0.01800
C78       0.02600   0.10200   0.08000   0.01800   0.01200   0.05500
P80       0.02770   0.03300   0.02590  -0.01400   0.00540  -0.01140
P81       0.02630   0.04530   0.03350   0.00210   0.00400  -0.01690
C83       0.02900   0.04400   0.03300   0.00500   0.00600   0.01100
O85       0.03700   0.03900   0.03600  -0.00700   0.01900  -0.01800
O86       0.03800   0.04500   0.05400   0.00900   0.00700  -0.02000
O87       0.04000   0.06300   0.02300  -0.00600   0.01300  -0.00800
P88       0.05000   0.06200   0.03440   0.01860   0.00310   0.01790
O90       0.04300   0.08400   0.03900   0.00000   0.00500   0.03400
O91       0.03700   0.10500   0.04200   0.02300   0.01300   0.03500
O92       0.11700   0.07100   0.06100   0.04100  -0.00000  -0.00900
Zn94      0.02380   0.03410   0.02600   0.00940   0.00330   0.00720
O95       0.03300   0.04300   0.03400   0.01700   0.01300   0.00800
O96       0.02500   0.03400   0.02500   0.01300  -0.00100   0.01200
O97       0.04000   0.02700   0.03400   0.01800   0.01800   0.01500
O98       0.02300   0.03500   0.03800   0.00700   0.00500   0.01300
P99       0.02660   0.04030   0.02990   0.00700   0.01000   0.00760
O100      0.03300   0.04400   0.03700   0.00400   0.01600   0.01600
O101      0.03000   0.04700   0.02400   0.00200   0.00300   0.00800
C102      0.02400   0.02900   0.02700   0.00500   0.01100   0.00600
C104      0.03700   0.05700   0.01800   0.00700   0.01300   0.00500
C105      0.05900   0.07800   0.05000   0.05100   0.03600   0.03500
C106      0.03400   0.03200   0.03600   0.01400   0.02000   0.00700
C109      0.06800   0.06500   0.04700   0.04100   0.04200   0.03000
C110      0.01900   0.02600   0.02000  -0.00600   0.00400  -0.00600
C113      0.01800   0.02600   0.01300   0.00700   0.00500   0.00200
C114      0.02400   0.02700   0.01500  -0.00200   0.00700  -0.00400
C115      0.02100   0.02200   0.02100   0.00000   0.00800  -0.00300
N116      0.01500   0.02700   0.01600  -0.00600   0.00500  -0.00800
C117      0.02100   0.02400   0.03400   0.00100   0.01300  -0.00100
N118      0.02300   0.02100   0.01800  -0.00100   0.00400  -0.00500
C119      0.02100   0.02000   0.02000   0.00000   0.00200   0.00400
Ni120     0.01800   0.02520   0.01500  -0.00380   0.00220  -0.00210
C121      0.01400   0.02900   0.01600  -0.00300   0.00600  -0.00600
C122      0.02300   0.02800   0.03500  -0.01100   0.01600  -0.01200
C124      0.02000   0.01900   0.02600  -0.00500   0.00500  -0.00200
C126      0.02500   0.02800   0.01800  -0.00600   0.00100  -0.00500
N127      0.02600   0.02400   0.02200  -0.00800   0.00600  -0.00500
N128      0.02000   0.02800   0.02100  -0.01000   0.01100  -0.00300
C129      0.02300   0.02600   0.02800  -0.00600   0.01500  -0.00900
C131      0.01600   0.02200   0.02100  -0.00700   0.00200  -0.00000
C133      0.01800   0.02700   0.02200  -0.00100   0.00100   0.00500
C134      0.01900   0.04000   0.01900  -0.01000   0.00400  -0.01500
C135      0.01800   0.04000   0.01700  -0.00600   0.00200   0.00600
C136      0.01300   0.02800   0.02300  -0.00400   0.00700  -0.00400
C137      0.02700   0.02500   0.02300  -0.00600   0.01100  -0.00500
C138      0.02800   0.01800   0.02100   0.00400  -0.00000  -0.00200
C139      0.01600   0.03000   0.02300  -0.00600  -0.00200   0.00700
C140      0.02900   0.02300   0.03500   0.00200   0.00400  -0.00100
C141      0.02500   0.02700   0.02800   0.00200   0.00100  -0.00100
C142      0.03400   0.04600   0.01800  -0.00800   0.00400   0.00400
C143      0.02400   0.04700   0.01500  -0.01200   0.00400  -0.00900
C144      0.02000   0.03700   0.03200   0.00500   0.00600  -0.00200
C145      0.02600   0.04200   0.02900  -0.01500   0.00900  -0.01800
C146      0.04000   0.04700   0.04100  -0.02000   0.02000  -0.01100
C147      0.02600   0.04900   0.03900  -0.01000   0.01400  -0.01500
C148      0.01900   0.03600   0.02500   0.00100   0.00100   0.01200
C154      0.00900   0.04400   0.02600  -0.01000   0.00100  -0.01200
C155      0.04500   0.03300   0.04400  -0.00600   0.02600  -0.01500
C158      0.03500   0.04700   0.04100  -0.01700   0.01400  -0.02600
C159      0.03800   0.06300   0.04400  -0.01300   0.02500  -0.02500
C161      0.03000   0.05000   0.03900   0.01000   0.01400   0.01800
C162      0.03500   0.09800   0.07000  -0.00200   0.01000   0.05600
C164      0.02200   0.03300   0.02500  -0.00200   0.01000  -0.00200
C167      0.01700   0.03200   0.02700   0.00000   0.00100  -0.00500
C170      0.04100   0.05200   0.04100   0.01000   0.02000   0.01800
C171      0.02600   0.10200   0.08000   0.01800   0.01200   0.05500
P173      0.02770   0.03300   0.02590  -0.01400   0.00540  -0.01140
P174      0.02630   0.04530   0.03350   0.00210   0.00400  -0.01690
C176      0.02900   0.04400   0.03300   0.00500   0.00600   0.01100
O178      0.03700   0.03900   0.03600  -0.00700   0.01900  -0.01800
O179      0.03800   0.04500   0.05400   0.00900   0.00700  -0.02000
O180      0.04000   0.06300   0.02300  -0.00600   0.01300  -0.00800
P181      0.05000   0.06200   0.03440   0.01860   0.00310   0.01790
O183      0.04300   0.08400   0.03900   0.00000   0.00500   0.03400
O184      0.03700   0.10500   0.04200   0.02300   0.01300   0.03500
O185      0.11700   0.07100   0.06100   0.04100  -0.00000  -0.00900
Zn187     0.02380   0.03410   0.02600  -0.00940   0.00330  -0.00720
O188      0.03300   0.04300   0.03400  -0.01700   0.01300  -0.00800
O189      0.02500   0.03400   0.02500  -0.01300  -0.00100  -0.01200
O190      0.04000   0.02700   0.03400  -0.01800   0.01800  -0.01500
O191      0.02300   0.03500   0.03800  -0.00700   0.00500  -0.01300
P192      0.02660   0.04030   0.02990  -0.00700   0.01000  -0.00760
O193      0.03300   0.04400   0.03700  -0.00400   0.01600  -0.01600
O194      0.03000   0.04700   0.02400  -0.00200   0.00300  -0.00800
C195      0.02400   0.02900   0.02700  -0.00500   0.01100  -0.00600
C197      0.03700   0.05700   0.01800  -0.00700   0.01300  -0.00500
C198      0.05900   0.07800   0.05000  -0.05100   0.03600  -0.03500
C199      0.03400   0.03200   0.03600  -0.01400   0.02000  -0.00700
C202      0.06800   0.06500   0.04700  -0.04100   0.04200  -0.03000
C203      0.01900   0.02600   0.02000   0.00600   0.00400   0.00600
C206      0.01800   0.02600   0.01300  -0.00700   0.00500  -0.00200
C207      0.02400   0.02700   0.01500   0.00200   0.00700   0.00400
C208      0.02100   0.02200   0.02100   0.00000   0.00800   0.00300
N209      0.01500   0.02700   0.01600   0.00600   0.00500   0.00800
C210      0.02100   0.02400   0.03400  -0.00100   0.01300   0.00100
N211      0.02300   0.02100   0.01800   0.00100   0.00400   0.00500
C212      0.02100   0.02000   0.02000   0.00000   0.00200  -0.00400
Ni213     0.01800   0.02520   0.01500   0.00380   0.00220   0.00210
C214      0.01400   0.02900   0.01600   0.00300   0.00600   0.00600
C215      0.02300   0.02800   0.03500   0.01100   0.01600   0.01200
C217      0.02000   0.01900   0.02600   0.00500   0.00500   0.00200
C219      0.02500   0.02800   0.01800   0.00600   0.00100   0.00500
N220      0.02600   0.02400   0.02200   0.00800   0.00600   0.00500
N221      0.02000   0.02800   0.02100   0.01000   0.01100   0.00300
C222      0.02300   0.02600   0.02800   0.00600   0.01500   0.00900
C224      0.01600   0.02200   0.02100   0.00700   0.00200   0.00000
C226      0.01800   0.02700   0.02200   0.00100   0.00100  -0.00500
C227      0.01900   0.04000   0.01900   0.01000   0.00400   0.01500
C228      0.01800   0.04000   0.01700   0.00600   0.00200  -0.00600
C229      0.01300   0.02800   0.02300   0.00400   0.00700   0.00400
C230      0.02700   0.02500   0.02300   0.00600   0.01100   0.00500
C231      0.02800   0.01800   0.02100  -0.00400  -0.00000   0.00200
C232      0.01600   0.03000   0.02300   0.00600  -0.00200  -0.00700
C233      0.02900   0.02300   0.03500  -0.00200   0.00400   0.00100
C234      0.02500   0.02700   0.02800  -0.00200   0.00100   0.00100
C235      0.03400   0.04600   0.01800   0.00800   0.00400  -0.00400
C236      0.02400   0.04700   0.01500   0.01200   0.00400   0.00900
C237      0.02000   0.03700   0.03200  -0.00500   0.00600   0.00200
C238      0.02600   0.04200   0.02900   0.01500   0.00900   0.01800
C239      0.04000   0.04700   0.04100   0.02000   0.02000   0.01100
C240      0.02600   0.04900   0.03900   0.01000   0.01400   0.01500
C241      0.01900   0.03600   0.02500  -0.00100   0.00100  -0.01200
C247      0.00900   0.04400   0.02600   0.01000   0.00100   0.01200
C248      0.04500   0.03300   0.04400   0.00600   0.02600   0.01500
C251      0.03500   0.04700   0.04100   0.01700   0.01400   0.02600
C252      0.03800   0.06300   0.04400   0.01300   0.02500   0.02500
C254      0.03000   0.05000   0.03900  -0.01000   0.01400  -0.01800
C255      0.03500   0.09800   0.07000   0.00200   0.01000  -0.05600
C257      0.02200   0.03300   0.02500   0.00200   0.01000   0.00200
C260      0.01700   0.03200   0.02700   0.00000   0.00100   0.00500
C263      0.04100   0.05200   0.04100  -0.01000   0.02000  -0.01800
C264      0.02600   0.10200   0.08000  -0.01800   0.01200  -0.05500
P266      0.02770   0.03300   0.02590   0.01400   0.00540   0.01140
P267      0.02630   0.04530   0.03350  -0.00210   0.00400   0.01690
C269      0.02900   0.04400   0.03300  -0.00500   0.00600  -0.01100
O271      0.03700   0.03900   0.03600   0.00700   0.01900   0.01800
O272      0.03800   0.04500   0.05400  -0.00900   0.00700   0.02000
O273      0.04000   0.06300   0.02300   0.00600   0.01300   0.00800
P274      0.05000   0.06200   0.03440  -0.01860   0.00310  -0.01790
O276      0.04300   0.08400   0.03900   0.00000   0.00500  -0.03400
O277      0.03700   0.10500   0.04200  -0.02300   0.01300  -0.03500
O278      0.11700   0.07100   0.06100  -0.04100  -0.00000   0.00900
Zn280     0.02380   0.03410   0.02600  -0.00940   0.00330  -0.00720
O281      0.03300   0.04300   0.03400  -0.01700   0.01300  -0.00800
O282      0.02500   0.03400   0.02500  -0.01300  -0.00100  -0.01200
O283      0.04000   0.02700   0.03400  -0.01800   0.01800  -0.01500
O284      0.02300   0.03500   0.03800  -0.00700   0.00500  -0.01300
P285      0.02660   0.04030   0.02990  -0.00700   0.01000  -0.00760
O286      0.03300   0.04400   0.03700  -0.00400   0.01600  -0.01600
O287      0.03000   0.04700   0.02400  -0.00200   0.00300  -0.00800
C288      0.02400   0.02900   0.02700  -0.00500   0.01100  -0.00600
C290      0.03700   0.05700   0.01800  -0.00700   0.01300  -0.00500
C291      0.05900   0.07800   0.05000  -0.05100   0.03600  -0.03500
C292      0.03400   0.03200   0.03600  -0.01400   0.02000  -0.00700
C295      0.06800   0.06500   0.04700  -0.04100   0.04200  -0.03000
C296      0.01900   0.02600   0.02000   0.00600   0.00400   0.00600
C299      0.01800   0.02600   0.01300  -0.00700   0.00500  -0.00200
C300      0.02400   0.02700   0.01500   0.00200   0.00700   0.00400
C301      0.02100   0.02200   0.02100   0.00000   0.00800   0.00300
N302      0.01500   0.02700   0.01600   0.00600   0.00500   0.00800
C303      0.02100   0.02400   0.03400  -0.00100   0.01300   0.00100
N304      0.02300   0.02100   0.01800   0.00100   0.00400   0.00500
C305      0.02100   0.02000   0.02000   0.00000   0.00200  -0.00400
Ni306     0.01800   0.02520   0.01500   0.00380   0.00220   0.00210
C307      0.01400   0.02900   0.01600   0.00300   0.00600   0.00600
C308      0.02300   0.02800   0.03500   0.01100   0.01600   0.01200
C310      0.02000   0.01900   0.02600   0.00500   0.00500   0.00200
C312      0.02500   0.02800   0.01800   0.00600   0.00100   0.00500
N313      0.02600   0.02400   0.02200   0.00800   0.00600   0.00500
N314      0.02000   0.02800   0.02100   0.01000   0.01100   0.00300
C315      0.02300   0.02600   0.02800   0.00600   0.01500   0.00900
C317      0.01600   0.02200   0.02100   0.00700   0.00200   0.00000
C319      0.01800   0.02700   0.02200   0.00100   0.00100  -0.00500
C320      0.01900   0.04000   0.01900   0.01000   0.00400   0.01500
C321      0.01800   0.04000   0.01700   0.00600   0.00200  -0.00600
C322      0.01300   0.02800   0.02300   0.00400   0.00700   0.00400
C323      0.02700   0.02500   0.02300   0.00600   0.01100   0.00500
C324      0.02800   0.01800   0.02100  -0.00400  -0.00000   0.00200
C325      0.01600   0.03000   0.02300   0.00600  -0.00200  -0.00700
C326      0.02900   0.02300   0.03500  -0.00200   0.00400   0.00100
C327      0.02500   0.02700   0.02800  -0.00200   0.00100   0.00100
C328      0.03400   0.04600   0.01800   0.00800   0.00400  -0.00400
C329      0.02400   0.04700   0.01500   0.01200   0.00400   0.00900
C330      0.02000   0.03700   0.03200  -0.00500   0.00600   0.00200
C331      0.02600   0.04200   0.02900   0.01500   0.00900   0.01800
C332      0.04000   0.04700   0.04100   0.02000   0.02000   0.01100
C333      0.02600   0.04900   0.03900   0.01000   0.01400   0.01500
C334      0.01900   0.03600   0.02500  -0.00100   0.00100  -0.01200
C340      0.00900   0.04400   0.02600   0.01000   0.00100   0.01200
C341      0.04500   0.03300   0.04400   0.00600   0.02600   0.01500
C344      0.03500   0.04700   0.04100   0.01700   0.01400   0.02600
C345      0.03800   0.06300   0.04400   0.01300   0.02500   0.02500
C347      0.03000   0.05000   0.03900  -0.01000   0.01400  -0.01800
C348      0.03500   0.09800   0.07000   0.00200   0.01000  -0.05600
C350      0.02200   0.03300   0.02500   0.00200   0.01000   0.00200
C353      0.01700   0.03200   0.02700   0.00000   0.00100   0.00500
C356      0.04100   0.05200   0.04100  -0.01000   0.02000  -0.01800
C357      0.02600   0.10200   0.08000  -0.01800   0.01200  -0.05500
P359      0.02770   0.03300   0.02590   0.01400   0.00540   0.01140
P360      0.02630   0.04530   0.03350  -0.00210   0.00400   0.01690
C362      0.02900   0.04400   0.03300  -0.00500   0.00600  -0.01100
O364      0.03700   0.03900   0.03600   0.00700   0.01900   0.01800
O365      0.03800   0.04500   0.05400  -0.00900   0.00700   0.02000
O366      0.04000   0.06300   0.02300   0.00600   0.01300   0.00800
P367      0.05000   0.06200   0.03440  -0.01860   0.00310  -0.01790
O369      0.04300   0.08400   0.03900   0.00000   0.00500  -0.03400
O370      0.03700   0.10500   0.04200  -0.02300   0.01300  -0.03500
O371      0.11700   0.07100   0.06100  -0.04100  -0.00000   0.00900
Zn373     0.02380   0.03410   0.02600   0.00940   0.00330   0.00720
O374      0.03300   0.04300   0.03400   0.01700   0.01300   0.00800
O375      0.02500   0.03400   0.02500   0.01300  -0.00100   0.01200
O376      0.04000   0.02700   0.03400   0.01800   0.01800   0.01500
O377      0.02300   0.03500   0.03800   0.00700   0.00500   0.01300
P378      0.02660   0.04030   0.02990   0.00700   0.01000   0.00760
O379      0.03300   0.04400   0.03700   0.00400   0.01600   0.01600
O380      0.03000   0.04700   0.02400   0.00200   0.00300   0.00800
C381      0.02400   0.02900   0.02700   0.00500   0.01100   0.00600
C383      0.03700   0.05700   0.01800   0.00700   0.01300   0.00500
C384      0.05900   0.07800   0.05000   0.05100   0.03600   0.03500
C385      0.03400   0.03200   0.03600   0.01400   0.02000   0.00700
C388      0.06800   0.06500   0.04700   0.04100   0.04200   0.03000
C389      0.01900   0.02600   0.02000  -0.00600   0.00400  -0.00600
C392      0.01800   0.02600   0.01300   0.00700   0.00500   0.00200
C393      0.02400   0.02700   0.01500  -0.00200   0.00700  -0.00400
C394      0.02100   0.02200   0.02100   0.00000   0.00800  -0.00300
N395      0.01500   0.02700   0.01600  -0.00600   0.00500  -0.00800
C396      0.02100   0.02400   0.03400   0.00100   0.01300  -0.00100
N397      0.02300   0.02100   0.01800  -0.00100   0.00400  -0.00500
C398      0.02100   0.02000   0.02000   0.00000   0.00200   0.00400
Ni399     0.01800   0.02520   0.01500  -0.00380   0.00220  -0.00210
C400      0.01400   0.02900   0.01600  -0.00300   0.00600  -0.00600
C401      0.02300   0.02800   0.03500  -0.01100   0.01600  -0.01200
C403      0.02000   0.01900   0.02600  -0.00500   0.00500  -0.00200
C405      0.02500   0.02800   0.01800  -0.00600   0.00100  -0.00500
N406      0.02600   0.02400   0.02200  -0.00800   0.00600  -0.00500
N407      0.02000   0.02800   0.02100  -0.01000   0.01100  -0.00300
C408      0.02300   0.02600   0.02800  -0.00600   0.01500  -0.00900
C410      0.01600   0.02200   0.02100  -0.00700   0.00200  -0.00000
C412      0.01800   0.02700   0.02200  -0.00100   0.00100   0.00500
C413      0.01900   0.04000   0.01900  -0.01000   0.00400  -0.01500
C414      0.01800   0.04000   0.01700  -0.00600   0.00200   0.00600
C415      0.01300   0.02800   0.02300  -0.00400   0.00700  -0.00400
C416      0.02700   0.02500   0.02300  -0.00600   0.01100  -0.00500
C417      0.02800   0.01800   0.02100   0.00400  -0.00000  -0.00200
C418      0.01600   0.03000   0.02300  -0.00600  -0.00200   0.00700
C419      0.02900   0.02300   0.03500   0.00200   0.00400  -0.00100
C420      0.02500   0.02700   0.02800   0.00200   0.00100  -0.00100
C421      0.03400   0.04600   0.01800  -0.00800   0.00400   0.00400
C422      0.02400   0.04700   0.01500  -0.01200   0.00400  -0.00900
C423      0.02000   0.03700   0.03200   0.00500   0.00600  -0.00200
C424      0.02600   0.04200   0.02900  -0.01500   0.00900  -0.01800
C425      0.04000   0.04700   0.04100  -0.02000   0.02000  -0.01100
C426      0.02600   0.04900   0.03900  -0.01000   0.01400  -0.01500
C427      0.01900   0.03600   0.02500   0.00100   0.00100   0.01200
C433      0.00900   0.04400   0.02600  -0.01000   0.00100  -0.01200
C434      0.04500   0.03300   0.04400  -0.00600   0.02600  -0.01500
C437      0.03500   0.04700   0.04100  -0.01700   0.01400  -0.02600
C438      0.03800   0.06300   0.04400  -0.01300   0.02500  -0.02500
C440      0.03000   0.05000   0.03900   0.01000   0.01400   0.01800
C441      0.03500   0.09800   0.07000  -0.00200   0.01000   0.05600
C443      0.02200   0.03300   0.02500  -0.00200   0.01000  -0.00200
C446      0.01700   0.03200   0.02700   0.00000   0.00100  -0.00500
C449      0.04100   0.05200   0.04100   0.01000   0.02000   0.01800
C450      0.02600   0.10200   0.08000   0.01800   0.01200   0.05500
P452      0.02770   0.03300   0.02590  -0.01400   0.00540  -0.01140
P453      0.02630   0.04530   0.03350   0.00210   0.00400  -0.01690
C455      0.02900   0.04400   0.03300   0.00500   0.00600   0.01100
O457      0.03700   0.03900   0.03600  -0.00700   0.01900  -0.01800
O458      0.03800   0.04500   0.05400   0.00900   0.00700  -0.02000
O459      0.04000   0.06300   0.02300  -0.00600   0.01300  -0.00800
P460      0.05000   0.06200   0.03440   0.01860   0.00310   0.01790
O462      0.04300   0.08400   0.03900   0.00000   0.00500   0.03400
O463      0.03700   0.10500   0.04200   0.02300   0.01300   0.03500
O464      0.11700   0.07100   0.06100   0.04100  -0.00000  -0.00900
Zn466     0.02380   0.03410   0.02600   0.00940   0.00330   0.00720
O467      0.03300   0.04300   0.03400   0.01700   0.01300   0.00800
O468      0.02500   0.03400   0.02500   0.01300  -0.00100   0.01200
O469      0.04000   0.02700   0.03400   0.01800   0.01800   0.01500
O470      0.02300   0.03500   0.03800   0.00700   0.00500   0.01300
P471      0.02660   0.04030   0.02990   0.00700   0.01000   0.00760
O472      0.03300   0.04400   0.03700   0.00400   0.01600   0.01600
O473      0.03000   0.04700   0.02400   0.00200   0.00300   0.00800
C474      0.02400   0.02900   0.02700   0.00500   0.01100   0.00600
C476      0.03700   0.05700   0.01800   0.00700   0.01300   0.00500
C477      0.05900   0.07800   0.05000   0.05100   0.03600   0.03500
C478      0.03400   0.03200   0.03600   0.01400   0.02000   0.00700
C481      0.06800   0.06500   0.04700   0.04100   0.04200   0.03000
C482      0.01900   0.02600   0.02000  -0.00600   0.00400  -0.00600
C485      0.01800   0.02600   0.01300   0.00700   0.00500   0.00200
C486      0.02400   0.02700   0.01500  -0.00200   0.00700  -0.00400
C487      0.02100   0.02200   0.02100   0.00000   0.00800  -0.00300
N488      0.01500   0.02700   0.01600  -0.00600   0.00500  -0.00800
C489      0.02100   0.02400   0.03400   0.00100   0.01300  -0.00100
N490      0.02300   0.02100   0.01800  -0.00100   0.00400  -0.00500
C491      0.02100   0.02000   0.02000   0.00000   0.00200   0.00400
Ni492     0.01800   0.02520   0.01500  -0.00380   0.00220  -0.00210
C493      0.01400   0.02900   0.01600  -0.00300   0.00600  -0.00600
C494      0.02300   0.02800   0.03500  -0.01100   0.01600  -0.01200
C496      0.02000   0.01900   0.02600  -0.00500   0.00500  -0.00200
C498      0.02500   0.02800   0.01800  -0.00600   0.00100  -0.00500
N499      0.02600   0.02400   0.02200  -0.00800   0.00600  -0.00500
N500      0.02000   0.02800   0.02100  -0.01000   0.01100  -0.00300
C501      0.02300   0.02600   0.02800  -0.00600   0.01500  -0.00900
C503      0.01600   0.02200   0.02100  -0.00700   0.00200  -0.00000
C505      0.01800   0.02700   0.02200  -0.00100   0.00100   0.00500
C506      0.01900   0.04000   0.01900  -0.01000   0.00400  -0.01500
C507      0.01800   0.04000   0.01700  -0.00600   0.00200   0.00600
C508      0.01300   0.02800   0.02300  -0.00400   0.00700  -0.00400
C509      0.02700   0.02500   0.02300  -0.00600   0.01100  -0.00500
C510      0.02800   0.01800   0.02100   0.00400  -0.00000  -0.00200
C511      0.01600   0.03000   0.02300  -0.00600  -0.00200   0.00700
C512      0.02900   0.02300   0.03500   0.00200   0.00400  -0.00100
C513      0.02500   0.02700   0.02800   0.00200   0.00100  -0.00100
C514      0.03400   0.04600   0.01800  -0.00800   0.00400   0.00400
C515      0.02400   0.04700   0.01500  -0.01200   0.00400  -0.00900
C516      0.02000   0.03700   0.03200   0.00500   0.00600  -0.00200
C517      0.02600   0.04200   0.02900  -0.01500   0.00900  -0.01800
C518      0.04000   0.04700   0.04100  -0.02000   0.02000  -0.01100
C519      0.02600   0.04900   0.03900  -0.01000   0.01400  -0.01500
C520      0.01900   0.03600   0.02500   0.00100   0.00100   0.01200
C526      0.00900   0.04400   0.02600  -0.01000   0.00100  -0.01200
C527      0.04500   0.03300   0.04400  -0.00600   0.02600  -0.01500
C530      0.03500   0.04700   0.04100  -0.01700   0.01400  -0.02600
C531      0.03800   0.06300   0.04400  -0.01300   0.02500  -0.02500
C533      0.03000   0.05000   0.03900   0.01000   0.01400   0.01800
C534      0.03500   0.09800   0.07000  -0.00200   0.01000   0.05600
C536      0.02200   0.03300   0.02500  -0.00200   0.01000  -0.00200
C539      0.01700   0.03200   0.02700   0.00000   0.00100  -0.00500
C542      0.04100   0.05200   0.04100   0.01000   0.02000   0.01800
C543      0.02600   0.10200   0.08000   0.01800   0.01200   0.05500
P545      0.02770   0.03300   0.02590  -0.01400   0.00540  -0.01140
P546      0.02630   0.04530   0.03350   0.00210   0.00400  -0.01690
C548      0.02900   0.04400   0.03300   0.00500   0.00600   0.01100
O550      0.03700   0.03900   0.03600  -0.00700   0.01900  -0.01800
O551      0.03800   0.04500   0.05400   0.00900   0.00700  -0.02000
O552      0.04000   0.06300   0.02300  -0.00600   0.01300  -0.00800
P553      0.05000   0.06200   0.03440   0.01860   0.00310   0.01790
O555      0.04300   0.08400   0.03900   0.00000   0.00500   0.03400
O556      0.03700   0.10500   0.04200   0.02300   0.01300   0.03500
O557      0.11700   0.07100   0.06100   0.04100  -0.00000  -0.00900
Zn559     0.02380   0.03410   0.02600  -0.00940   0.00330  -0.00720
O560      0.03300   0.04300   0.03400  -0.01700   0.01300  -0.00800
O561      0.02500   0.03400   0.02500  -0.01300  -0.00100  -0.01200
O562      0.04000   0.02700   0.03400  -0.01800   0.01800  -0.01500
O563      0.02300   0.03500   0.03800  -0.00700   0.00500  -0.01300
P564      0.02660   0.04030   0.02990  -0.00700   0.01000  -0.00760
O565      0.03300   0.04400   0.03700  -0.00400   0.01600  -0.01600
O566      0.03000   0.04700   0.02400  -0.00200   0.00300  -0.00800
C567      0.02400   0.02900   0.02700  -0.00500   0.01100  -0.00600
C569      0.03700   0.05700   0.01800  -0.00700   0.01300  -0.00500
C570      0.05900   0.07800   0.05000  -0.05100   0.03600  -0.03500
C571      0.03400   0.03200   0.03600  -0.01400   0.02000  -0.00700
C574      0.06800   0.06500   0.04700  -0.04100   0.04200  -0.03000
C575      0.01900   0.02600   0.02000   0.00600   0.00400   0.00600
C578      0.01800   0.02600   0.01300  -0.00700   0.00500  -0.00200
C579      0.02400   0.02700   0.01500   0.00200   0.00700   0.00400
C580      0.02100   0.02200   0.02100   0.00000   0.00800   0.00300
N581      0.01500   0.02700   0.01600   0.00600   0.00500   0.00800
C582      0.02100   0.02400   0.03400  -0.00100   0.01300   0.00100
N583      0.02300   0.02100   0.01800   0.00100   0.00400   0.00500
C584      0.02100   0.02000   0.02000   0.00000   0.00200  -0.00400
Ni585     0.01800   0.02520   0.01500   0.00380   0.00220   0.00210
C586      0.01400   0.02900   0.01600   0.00300   0.00600   0.00600
C587      0.02300   0.02800   0.03500   0.01100   0.01600   0.01200
C589      0.02000   0.01900   0.02600   0.00500   0.00500   0.00200
C591      0.02500   0.02800   0.01800   0.00600   0.00100   0.00500
N592      0.02600   0.02400   0.02200   0.00800   0.00600   0.00500
N593      0.02000   0.02800   0.02100   0.01000   0.01100   0.00300
C594      0.02300   0.02600   0.02800   0.00600   0.01500   0.00900
C596      0.01600   0.02200   0.02100   0.00700   0.00200   0.00000
C598      0.01800   0.02700   0.02200   0.00100   0.00100  -0.00500
C599      0.01900   0.04000   0.01900   0.01000   0.00400   0.01500
C600      0.01800   0.04000   0.01700   0.00600   0.00200  -0.00600
C601      0.01300   0.02800   0.02300   0.00400   0.00700   0.00400
C602      0.02700   0.02500   0.02300   0.00600   0.01100   0.00500
C603      0.02800   0.01800   0.02100  -0.00400  -0.00000   0.00200
C604      0.01600   0.03000   0.02300   0.00600  -0.00200  -0.00700
C605      0.02900   0.02300   0.03500  -0.00200   0.00400   0.00100
C606      0.02500   0.02700   0.02800  -0.00200   0.00100   0.00100
C607      0.03400   0.04600   0.01800   0.00800   0.00400  -0.00400
C608      0.02400   0.04700   0.01500   0.01200   0.00400   0.00900
C609      0.02000   0.03700   0.03200  -0.00500   0.00600   0.00200
C610      0.02600   0.04200   0.02900   0.01500   0.00900   0.01800
C611      0.04000   0.04700   0.04100   0.02000   0.02000   0.01100
C612      0.02600   0.04900   0.03900   0.01000   0.01400   0.01500
C613      0.01900   0.03600   0.02500  -0.00100   0.00100  -0.01200
C619      0.00900   0.04400   0.02600   0.01000   0.00100   0.01200
C620      0.04500   0.03300   0.04400   0.00600   0.02600   0.01500
C623      0.03500   0.04700   0.04100   0.01700   0.01400   0.02600
C624      0.03800   0.06300   0.04400   0.01300   0.02500   0.02500
C626      0.03000   0.05000   0.03900  -0.01000   0.01400  -0.01800
C627      0.03500   0.09800   0.07000   0.00200   0.01000  -0.05600
C629      0.02200   0.03300   0.02500   0.00200   0.01000   0.00200
C632      0.01700   0.03200   0.02700   0.00000   0.00100   0.00500
C635      0.04100   0.05200   0.04100  -0.01000   0.02000  -0.01800
C636      0.02600   0.10200   0.08000  -0.01800   0.01200  -0.05500
P638      0.02770   0.03300   0.02590   0.01400   0.00540   0.01140
P639      0.02630   0.04530   0.03350  -0.00210   0.00400   0.01690
C641      0.02900   0.04400   0.03300  -0.00500   0.00600  -0.01100
O643      0.03700   0.03900   0.03600   0.00700   0.01900   0.01800
O644      0.03800   0.04500   0.05400  -0.00900   0.00700   0.02000
O645      0.04000   0.06300   0.02300   0.00600   0.01300   0.00800
P646      0.05000   0.06200   0.03440  -0.01860   0.00310  -0.01790
O648      0.04300   0.08400   0.03900   0.00000   0.00500  -0.03400
O649      0.03700   0.10500   0.04200  -0.02300   0.01300  -0.03500
O650      0.11700   0.07100   0.06100  -0.04100  -0.00000   0.00900
Zn652     0.02380   0.03410   0.02600  -0.00940   0.00330  -0.00720
O653      0.03300   0.04300   0.03400  -0.01700   0.01300  -0.00800
O654      0.02500   0.03400   0.02500  -0.01300  -0.00100  -0.01200
O655      0.04000   0.02700   0.03400  -0.01800   0.01800  -0.01500
O656      0.02300   0.03500   0.03800  -0.00700   0.00500  -0.01300
P657      0.02660   0.04030   0.02990  -0.00700   0.01000  -0.00760
O658      0.03300   0.04400   0.03700  -0.00400   0.01600  -0.01600
O659      0.03000   0.04700   0.02400  -0.00200   0.00300  -0.00800
C660      0.02400   0.02900   0.02700  -0.00500   0.01100  -0.00600
C662      0.03700   0.05700   0.01800  -0.00700   0.01300  -0.00500
C663      0.05900   0.07800   0.05000  -0.05100   0.03600  -0.03500
C664      0.03400   0.03200   0.03600  -0.01400   0.02000  -0.00700
C667      0.06800   0.06500   0.04700  -0.04100   0.04200  -0.03000
C668      0.01900   0.02600   0.02000   0.00600   0.00400   0.00600
C671      0.01800   0.02600   0.01300  -0.00700   0.00500  -0.00200
C672      0.02400   0.02700   0.01500   0.00200   0.00700   0.00400
C673      0.02100   0.02200   0.02100   0.00000   0.00800   0.00300
N674      0.01500   0.02700   0.01600   0.00600   0.00500   0.00800
C675      0.02100   0.02400   0.03400  -0.00100   0.01300   0.00100
N676      0.02300   0.02100   0.01800   0.00100   0.00400   0.00500
C677      0.02100   0.02000   0.02000   0.00000   0.00200  -0.00400
Ni678     0.01800   0.02520   0.01500   0.00380   0.00220   0.00210
C679      0.01400   0.02900   0.01600   0.00300   0.00600   0.00600
C680      0.02300   0.02800   0.03500   0.01100   0.01600   0.01200
C682      0.02000   0.01900   0.02600   0.00500   0.00500   0.00200
C684      0.02500   0.02800   0.01800   0.00600   0.00100   0.00500
N685      0.02600   0.02400   0.02200   0.00800   0.00600   0.00500
N686      0.02000   0.02800   0.02100   0.01000   0.01100   0.00300
C687      0.02300   0.02600   0.02800   0.00600   0.01500   0.00900
C689      0.01600   0.02200   0.02100   0.00700   0.00200   0.00000
C691      0.01800   0.02700   0.02200   0.00100   0.00100  -0.00500
C692      0.01900   0.04000   0.01900   0.01000   0.00400   0.01500
C693      0.01800   0.04000   0.01700   0.00600   0.00200  -0.00600
C694      0.01300   0.02800   0.02300   0.00400   0.00700   0.00400
C695      0.02700   0.02500   0.02300   0.00600   0.01100   0.00500
C696      0.02800   0.01800   0.02100  -0.00400  -0.00000   0.00200
C697      0.01600   0.03000   0.02300   0.00600  -0.00200  -0.00700
C698      0.02900   0.02300   0.03500  -0.00200   0.00400   0.00100
C699      0.02500   0.02700   0.02800  -0.00200   0.00100   0.00100
C700      0.03400   0.04600   0.01800   0.00800   0.00400  -0.00400
C701      0.02400   0.04700   0.01500   0.01200   0.00400   0.00900
C702      0.02000   0.03700   0.03200  -0.00500   0.00600   0.00200
C703      0.02600   0.04200   0.02900   0.01500   0.00900   0.01800
C704      0.04000   0.04700   0.04100   0.02000   0.02000   0.01100
C705      0.02600   0.04900   0.03900   0.01000   0.01400   0.01500
C706      0.01900   0.03600   0.02500  -0.00100   0.00100  -0.01200
C712      0.00900   0.04400   0.02600   0.01000   0.00100   0.01200
C713      0.04500   0.03300   0.04400   0.00600   0.02600   0.01500
C716      0.03500   0.04700   0.04100   0.01700   0.01400   0.02600
C717      0.03800   0.06300   0.04400   0.01300   0.02500   0.02500
C719      0.03000   0.05000   0.03900  -0.01000   0.01400  -0.01800
C720      0.03500   0.09800   0.07000   0.00200   0.01000  -0.05600
C722      0.02200   0.03300   0.02500   0.00200   0.01000   0.00200
C725      0.01700   0.03200   0.02700   0.00000   0.00100   0.00500
C728      0.04100   0.05200   0.04100  -0.01000   0.02000  -0.01800
C729      0.02600   0.10200   0.08000  -0.01800   0.01200  -0.05500
P731      0.02770   0.03300   0.02590   0.01400   0.00540   0.01140
P732      0.02630   0.04530   0.03350  -0.00210   0.00400   0.01690
C734      0.02900   0.04400   0.03300  -0.00500   0.00600  -0.01100
O736      0.03700   0.03900   0.03600   0.00700   0.01900   0.01800
O737      0.03800   0.04500   0.05400  -0.00900   0.00700   0.02000
O738      0.04000   0.06300   0.02300   0.00600   0.01300   0.00800
P739      0.05000   0.06200   0.03440  -0.01860   0.00310  -0.01790
O741      0.04300   0.08400   0.03900   0.00000   0.00500  -0.03400
O742      0.03700   0.10500   0.04200  -0.02300   0.01300  -0.03500
O743      0.11700   0.07100   0.06100  -0.04100  -0.00000   0.00900
loop_
_geom_bond_atom_site_label_1
_geom_bond_atom_site_label_2
_geom_bond_distance
_geom_bond_site_symmetry_2
_ccdc_geom_bond_type
Zn1    O2      1.945   .     S
Zn1    O3      1.938   .     S
Zn1    O4      1.937   .     S
Zn1    O5      1.930   .     S
O2     P6      1.505   .     S
O3     P266    1.523   .     S
O4     P731    1.529   .     S
O5     P360    1.514   .     S
P6     O7      1.528   .     S
P6     O8      1.535   .     S
P6     C9      1.781   .     S
O8     H10     0.811   .     S
C9     C11     1.391   .     S
C9     C12     1.379   .     S
C11    C13     1.378   .     S
C11    H14     0.951   .     S
C12    H15     0.951   .     S
C12    C16     1.386   .     S
C13    C17     1.371   .     S
C13    H18     0.949   .     S
C16    H19     0.950   .     S
C16    C17     1.375   .     S
C17    C20     1.486   .     S
C20    C21     1.368   .     S
C20    C22     1.373   .     S
C21    N23     1.379   .     S
C21    C24     1.429   .     S
C22    N25     1.384   .     S
C22    C26     1.432   .     S
N23    Ni27    1.921   .     S
N23    C28     1.378   .     S
C24    C29     1.331   .     S
C24    H30     0.950   .     S
N25    C31     1.370   .     S
N25    Ni27    1.925   .     S
C26    H32     0.950   .     S
C26    C33     1.341   .     S
Ni27   N34     1.927   .     S
Ni27   N35     1.931   .     S
C28    C36     1.392   .     S
C28    C29     1.441   .     S
C29    H37     0.948   .     S
C31    C38     1.376   .     S
C31    C33     1.439   .     S
C33    H39     0.951   .     S
N34    C40     1.390   .     S
N34    C41     1.389   .     S
N35    C42     1.376   .     S
N35    C43     1.382   .     S
C36    C44     1.487   .     S
C36    C43     1.392   .     S
C38    C45     1.504   .     S
C38    C41     1.397   .     S
C40    C46     1.379   .     S
C40    C47     1.414   .     S
C41    C48     1.427   .     S
C42    C49     1.445   .     S
C42    C46     1.368   .     S
C43    C50     1.417   .     S
C44    C51     1.392   .     S
C44    C52     1.380   .     S
C45    C53     1.376   .     S
C45    C54     1.388   .     S
C46    C55     1.492   .     S
C47    H56     0.950   .     S
C47    C48     1.340   .     S
C48    H57     0.952   .     S
C49    H58     0.951   .     S
C49    C50     1.345   .     S
C50    H59     0.950   .     S
C51    H60     0.950   .     S
C51    C61     1.379   .     S
C52    C62     1.360   .     S
C52    H63     0.950   .     S
C53    H64     0.949   .     S
C53    C65     1.368   .     S
C54    C66     1.372   .     S
C54    H67     0.948   .     S
C55    C68     1.350   .     S
C55    C69     1.361   .     S
C61    H70     0.951   .     S
C61    C71     1.370   .     S
C62    H72     0.951   .     S
C62    C71     1.398   .     S
C65    H73     0.949   .     S
C65    C74     1.366   .     S
C66    H75     0.951   .     S
C66    C74     1.386   .     S
C68    H76     0.948   .     S
C68    C77     1.391   .     S
C69    C78     1.374   .     S
C69    H79     0.952   .     S
C71    P80     1.785   .     S
C74    P81     1.799   .     S
C77    H82     0.950   .     S
C77    C83     1.366   .     S
C78    H84     0.950   .     S
C78    C83     1.374   .     S
P80    O85     1.524   .     S
P80    O189    1.523   1_554 S
P80    O655    1.529   .     S
P81    O86     1.492   .     S
P81    O87     1.552   .     S
P81    O284    1.514   .     S
C83    P88     1.803   1_554 S
O87    H89     0.820   .     S
P88    C83     1.803   1_556 S
P88    O90     1.540   .     S
P88    O91     1.523   .     S
P88    O92     1.510   1_556 S
O91    H93     0.811   .     S
O92    P88     1.510   1_554 S
Zn94   O95     1.945   .     S
Zn94   O96     1.938   .     S
Zn94   O97     1.937   .     S
Zn94   O98     1.930   .     S
O95    P99     1.505   .     S
O96    P359    1.523   .     S
O97    P638    1.529   .     S
O98    P267    1.514   .     S
P99    O100    1.528   .     S
P99    O101    1.535   .     S
P99    C102    1.781   .     S
O101   H103    0.811   .     S
C102   C104    1.391   .     S
C102   C105    1.379   .     S
C104   C106    1.378   .     S
C104   H107    0.951   .     S
C105   H108    0.951   .     S
C105   C109    1.386   .     S
C106   C110    1.371   .     S
C106   H111    0.949   .     S
C109   H112    0.950   .     S
C109   C110    1.375   .     S
C110   C113    1.486   1_565 S
C113   C110    1.486   1_545 S
C113   C114    1.368   1_545 S
C113   C115    1.373   .     S
C114   C113    1.368   1_565 S
C114   N116    1.379   1_565 S
C114   C117    1.429   .     S
C115   N118    1.384   .     S
C115   C119    1.432   .     S
N116   C114    1.379   1_545 S
N116   Ni120   1.921   1_455 S
N116   C121    1.378   1_445 S
C117   C122    1.331   1_455 S
C117   H123    0.950   .     S
N118   C124    1.370   .     S
N118   Ni120   1.925   1_455 S
C119   H125    0.950   .     S
C119   C126    1.341   .     S
Ni120  N116    1.921   1_655 S
Ni120  N127    1.927   .     S
Ni120  N128    1.931   .     S
Ni120  N118    1.925   1_655 S
C121   N116    1.378   1_665 S
C121   C129    1.392   .     S
C121   C122    1.441   .     S
C122   C117    1.331   1_655 S
C122   H130    0.948   .     S
C124   C131    1.376   .     S
C124   C126    1.439   .     S
C126   H132    0.951   .     S
N127   C133    1.390   .     S
N127   C134    1.389   1_655 S
N128   C135    1.376   .     S
N128   C136    1.382   .     S
C129   C137    1.487   .     S
C129   C136    1.392   1_565 S
C131   C138    1.504   .     S
C131   C134    1.397   .     S
C133   C139    1.379   .     S
C133   C140    1.414   .     S
C134   N127    1.389   1_455 S
C134   C141    1.427   1_455 S
C135   C142    1.445   .     S
C135   C139    1.368   .     S
C136   C143    1.417   .     S
C136   C129    1.392   1_545 S
C137   C144    1.392   .     S
C137   C145    1.380   .     S
C138   C146    1.376   .     S
C138   C147    1.388   .     S
C139   C148    1.492   .     S
C140   H149    0.950   .     S
C140   C141    1.340   .     S
C141   C134    1.427   1_655 S
C141   H150    0.952   .     S
C142   H151    0.951   .     S
C142   C143    1.345   .     S
C143   H152    0.950   .     S
C144   H153    0.950   .     S
C144   C154    1.379   .     S
C145   C155    1.360   .     S
C145   H156    0.950   .     S
C146   H157    0.949   .     S
C146   C158    1.368   .     S
C147   C159    1.372   .     S
C147   H160    0.948   .     S
C148   C161    1.350   .     S
C148   C162    1.361   .     S
C154   H163    0.951   .     S
C154   C164    1.370   .     S
C155   H165    0.951   .     S
C155   C164    1.398   .     S
C158   H166    0.949   .     S
C158   C167    1.366   .     S
C159   H168    0.951   .     S
C159   C167    1.386   .     S
C161   H169    0.948   .     S
C161   C170    1.391   .     S
C162   C171    1.374   .     S
C162   H172    0.952   .     S
C164   P173    1.785   .     S
C167   P174    1.799   .     S
C170   H175    0.950   .     S
C170   C176    1.366   .     S
C171   H177    0.950   .     S
C171   C176    1.374   .     S
P173   O178    1.524   .     S
P173   O282    1.523   1_554 S
P173   O562    1.529   .     S
P174   O179    1.492   .     S
P174   O180    1.552   .     S
P174   O191    1.514   .     S
C176   P181    1.803   1_554 S
O180   H182    0.820   .     S
P181   C176    1.803   1_556 S
P181   O183    1.540   .     S
P181   O184    1.523   .     S
P181   O185    1.510   1_556 S
O184   H186    0.811   .     S
O185   P181    1.510   1_554 S
Zn187  O188    1.945   .     S
Zn187  O189    1.938   .     S
Zn187  O190    1.937   .     S
Zn187  O191    1.930   .     S
O188   P192    1.505   .     S
O189   P80     1.523   1_556 S
O190   P545    1.529   .     S
P192   O193    1.528   .     S
P192   O194    1.535   .     S
P192   C195    1.781   .     S
O194   H196    0.811   .     S
C195   C197    1.391   .     S
C195   C198    1.379   .     S
C197   C199    1.378   .     S
C197   H200    0.951   .     S
C198   H201    0.951   .     S
C198   C202    1.386   .     S
C199   C203    1.371   .     S
C199   H204    0.949   .     S
C202   H205    0.950   1_556 S
C202   C203    1.375   .     S
C203   C206    1.486   .     S
H205   C202    0.950   1_554 S
C206   C207    1.368   1_556 S
C206   C208    1.373   .     S
C207   C206    1.368   1_554 S
C207   N209    1.379   .     S
C207   C210    1.429   .     S
C208   N211    1.384   1_556 S
C208   C212    1.432   .     S
N209   Ni213   1.921   .     S
N209   C214    1.378   .     S
C210   C215    1.331   .     S
C210   H216    0.950   .     S
N211   C208    1.384   1_554 S
N211   C217    1.370   1_554 S
N211   Ni213   1.925   .     S
C212   H218    0.950   .     S
C212   C219    1.341   .     S
Ni213  N220    1.927   .     S
Ni213  N221    1.931   .     S
C214   C222    1.392   .     S
C214   C215    1.441   .     S
C215   H223    0.948   .     S
C217   N211    1.370   1_556 S
C217   C224    1.376   .     S
C217   C219    1.439   .     S
C219   H225    0.951   .     S
N220   C226    1.390   .     S
N220   C227    1.389   .     S
N221   C228    1.376   .     S
N221   C229    1.382   .     S
C222   C230    1.487   .     S
C222   C229    1.392   .     S
C224   C231    1.504   .     S
C224   C227    1.397   1_556 S
C226   C232    1.379   .     S
C226   C233    1.414   .     S
C227   C234    1.427   .     S
C227   C224    1.397   1_554 S
C228   C235    1.445   .     S
C228   C232    1.368   .     S
C229   C236    1.417   .     S
C230   C237    1.392   .     S
C230   C238    1.380   .     S
C231   C239    1.376   .     S
C231   C240    1.388   .     S
C232   C241    1.492   .     S
C233   H242    0.950   .     S
C233   C234    1.340   .     S
C234   H243    0.952   .     S
C235   H244    0.951   .     S
C235   C236    1.345   .     S
C236   H245    0.950   .     S
C237   H246    0.950   .     S
C237   C247    1.379   .     S
C238   C248    1.360   .     S
C238   H249    0.950   .     S
C239   H250    0.949   .     S
C239   C251    1.368   .     S
C240   C252    1.372   .     S
C240   H253    0.948   .     S
C241   C254    1.350   .     S
C241   C255    1.361   .     S
C247   H256    0.951   .     S
C247   C257    1.370   .     S
C248   H258    0.951   .     S
C248   C257    1.398   .     S
C251   H259    0.949   .     S
C251   C260    1.366   .     S
C252   H261    0.951   .     S
C252   C260    1.386   .     S
C254   H262    0.948   .     S
C254   C263    1.391   .     S
C255   C264    1.374   .     S
C255   H265    0.952   .     S
C257   P266    1.785   .     S
C260   P267    1.799   .     S
C263   H268    0.950   .     S
C263   C269    1.366   .     S
C264   H270    0.950   .     S
C264   C269    1.374   .     S
P266   O271    1.524   .     S
P266   O469    1.529   .     S
P267   O272    1.492   .     S
P267   O273    1.552   .     S
C269   P274    1.803   .     S
O273   H275    0.820   .     S
P274   O276    1.540   .     S
P274   O277    1.523   .     S
P274   O278    1.510   .     S
O277   H279    0.811   .     S
Zn280  O281    1.945   .     S
Zn280  O282    1.938   .     S
Zn280  O283    1.937   .     S
Zn280  O284    1.930   .     S
O281   P285    1.505   .     S
O282   P173    1.523   1_556 S
O283   P452    1.529   .     S
P285   O286    1.528   .     S
P285   O287    1.535   .     S
P285   C288    1.781   .     S
O287   H289    0.811   .     S
C288   C290    1.391   .     S
C288   C291    1.379   .     S
C290   C292    1.378   .     S
C290   H293    0.951   .     S
C291   H294    0.951   .     S
C291   C295    1.386   .     S
C292   C296    1.371   .     S
C292   H297    0.949   .     S
C295   H298    0.950   1_556 S
C295   C296    1.375   .     S
C296   C299    1.486   1_565 S
H298   C295    0.950   1_554 S
C299   C296    1.486   1_545 S
C299   C300    1.368   1_546 S
C299   C301    1.373   .     S
C300   C299    1.368   1_564 S
C300   N302    1.379   1_565 S
C300   C303    1.429   .     S
C301   N304    1.384   1_556 S
C301   C305    1.432   .     S
N302   C300    1.379   1_545 S
N302   Ni306   1.921   1_655 S
N302   C307    1.378   1_645 S
C303   C308    1.331   1_655 S
C303   H309    0.950   .     S
N304   C301    1.384   1_554 S
N304   C310    1.370   1_554 S
N304   Ni306   1.925   1_655 S
C305   H311    0.950   .     S
C305   C312    1.341   .     S
Ni306  N302    1.921   1_455 S
Ni306  N313    1.927   .     S
Ni306  N314    1.931   .     S
Ni306  N304    1.925   1_455 S
C307   N302    1.378   1_465 S
C307   C315    1.392   .     S
C307   C308    1.441   .     S
C308   C303    1.331   1_455 S
C308   H316    0.948   .     S
C310   N304    1.370   1_556 S
C310   C317    1.376   .     S
C310   C312    1.439   .     S
C312   H318    0.951   .     S
N313   C319    1.390   .     S
N313   C320    1.389   1_455 S
N314   C321    1.376   .     S
N314   C322    1.382   .     S
C315   C323    1.487   .     S
C315   C322    1.392   1_565 S
C317   C324    1.504   .     S
C317   C320    1.397   1_556 S
C319   C325    1.379   .     S
C319   C326    1.414   .     S
C320   N313    1.389   1_655 S
C320   C327    1.427   1_655 S
C320   C317    1.397   1_554 S
C321   C328    1.445   .     S
C321   C325    1.368   .     S
C322   C329    1.417   .     S
C322   C315    1.392   1_545 S
C323   C330    1.392   .     S
C323   C331    1.380   .     S
C324   C332    1.376   .     S
C324   C333    1.388   .     S
C325   C334    1.492   .     S
C326   H335    0.950   .     S
C326   C327    1.340   .     S
C327   C320    1.427   1_455 S
C327   H336    0.952   .     S
C328   H337    0.951   .     S
C328   C329    1.345   .     S
C329   H338    0.950   .     S
C330   H339    0.950   .     S
C330   C340    1.379   .     S
C331   C341    1.360   .     S
C331   H342    0.950   .     S
C332   H343    0.949   .     S
C332   C344    1.368   .     S
C333   C345    1.372   .     S
C333   H346    0.948   .     S
C334   C347    1.350   .     S
C334   C348    1.361   .     S
C340   H349    0.951   .     S
C340   C350    1.370   .     S
C341   H351    0.951   .     S
C341   C350    1.398   .     S
C344   H352    0.949   .     S
C344   C353    1.366   .     S
C345   H354    0.951   .     S
C345   C353    1.386   .     S
C347   H355    0.948   .     S
C347   C356    1.391   .     S
C348   C357    1.374   .     S
C348   H358    0.952   .     S
C350   P359    1.785   .     S
C353   P360    1.799   .     S
C356   H361    0.950   .     S
C356   C362    1.366   .     S
C357   H363    0.950   .     S
C357   C362    1.374   .     S
P359   O364    1.524   .     S
P359   O376    1.529   .     S
P360   O365    1.492   .     S
P360   O366    1.552   .     S
C362   P367    1.803   .     S
O366   H368    0.820   .     S
P367   O369    1.540   .     S
P367   O370    1.523   .     S
P367   O371    1.510   .     S
O370   H372    0.811   .     S
Zn373  O374    1.945   .     S
Zn373  O375    1.938   .     S
Zn373  O376    1.937   .     S
Zn373  O377    1.930   .     S
O374   P378    1.505   .     S
O375   P638    1.523   .     S
O377   P732    1.514   .     S
P378   O379    1.528   .     S
P378   O380    1.535   .     S
P378   C381    1.781   .     S
O380   H382    0.811   .     S
C381   C383    1.391   .     S
C381   C384    1.379   .     S
C383   C385    1.378   .     S
C383   H386    0.951   .     S
C384   H387    0.951   .     S
C384   C388    1.386   .     S
C385   C389    1.371   .     S
C385   H390    0.949   .     S
C388   H391    0.950   .     S
C388   C389    1.375   .     S
C389   C392    1.486   .     S
C392   C393    1.368   .     S
C392   C394    1.373   .     S
C393   N395    1.379   .     S
C393   C396    1.429   .     S
C394   N397    1.384   .     S
C394   C398    1.432   .     S
N395   Ni399   1.921   .     S
N395   C400    1.378   .     S
C396   C401    1.331   .     S
C396   H402    0.950   .     S
N397   C403    1.370   .     S
N397   Ni399   1.925   .     S
C398   H404    0.950   .     S
C398   C405    1.341   .     S
Ni399  N406    1.927   .     S
Ni399  N407    1.931   .     S
C400   C408    1.392   .     S
C400   C401    1.441   .     S
C401   H409    0.948   .     S
C403   C410    1.376   .     S
C403   C405    1.439   .     S
C405   H411    0.951   .     S
N406   C412    1.390   .     S
N406   C413    1.389   .     S
N407   C414    1.376   .     S
N407   C415    1.382   .     S
C408   C416    1.487   .     S
C408   C415    1.392   .     S
C410   C417    1.504   .     S
C410   C413    1.397   .     S
C412   C418    1.379   .     S
C412   C419    1.414   .     S
C413   C420    1.427   .     S
C414   C421    1.445   .     S
C414   C418    1.368   .     S
C415   C422    1.417   .     S
C416   C423    1.392   .     S
C416   C424    1.380   .     S
C417   C425    1.376   .     S
C417   C426    1.388   .     S
C418   C427    1.492   .     S
C419   H428    0.950   .     S
C419   C420    1.340   .     S
C420   H429    0.952   .     S
C421   H430    0.951   .     S
C421   C422    1.345   .     S
C422   H431    0.950   .     S
C423   H432    0.950   .     S
C423   C433    1.379   .     S
C424   C434    1.360   .     S
C424   H435    0.950   .     S
C425   H436    0.949   .     S
C425   C437    1.368   .     S
C426   C438    1.372   .     S
C426   H439    0.948   .     S
C427   C440    1.350   .     S
C427   C441    1.361   .     S
C433   H442    0.951   .     S
C433   C443    1.370   .     S
C434   H444    0.951   .     S
C434   C443    1.398   .     S
C437   H445    0.949   .     S
C437   C446    1.366   .     S
C438   H447    0.951   .     S
C438   C446    1.386   .     S
C440   H448    0.948   .     S
C440   C449    1.391   .     S
C441   C450    1.374   .     S
C441   H451    0.952   .     S
C443   P452    1.785   .     S
C446   P453    1.799   .     S
C449   H454    0.950   .     S
C449   C455    1.366   .     S
C450   H456    0.950   .     S
C450   C455    1.374   .     S
P452   O457    1.524   .     S
P452   O561    1.523   1_556 S
P453   O458    1.492   .     S
P453   O459    1.552   .     S
P453   O656    1.514   .     S
C455   P460    1.803   1_556 S
O459   H461    0.820   .     S
P460   C455    1.803   1_554 S
P460   O462    1.540   .     S
P460   O463    1.523   .     S
P460   O464    1.510   1_554 S
O463   H465    0.811   .     S
O464   P460    1.510   1_556 S
Zn466  O467    1.945   .     S
Zn466  O468    1.938   .     S
Zn466  O469    1.937   .     S
Zn466  O470    1.930   .     S
O467   P471    1.505   .     S
O468   P731    1.523   .     S
O470   P639    1.514   .     S
P471   O472    1.528   .     S
P471   O473    1.535   .     S
P471   C474    1.781   .     S
O473   H475    0.811   .     S
C474   C476    1.391   .     S
C474   C477    1.379   .     S
C476   C478    1.378   .     S
C476   H479    0.951   .     S
C477   H480    0.951   .     S
C477   C481    1.386   .     S
C478   C482    1.371   .     S
C478   H483    0.949   .     S
C481   H484    0.950   .     S
C481   C482    1.375   .     S
C482   C485    1.486   1_545 S
C485   C482    1.486   1_565 S
C485   C486    1.368   1_565 S
C485   C487    1.373   .     S
C486   C485    1.368   1_545 S
C486   N488    1.379   1_545 S
C486   C489    1.429   .     S
C487   N490    1.384   .     S
C487   C491    1.432   .     S
N488   C486    1.379   1_565 S
N488   Ni492   1.921   1_655 S
N488   C493    1.378   1_665 S
C489   C494    1.331   1_655 S
C489   H495    0.950   .     S
N490   C496    1.370   .     S
N490   Ni492   1.925   1_655 S
C491   H497    0.950   .     S
C491   C498    1.341   .     S
Ni492  N488    1.921   1_455 S
Ni492  N499    1.927   .     S
Ni492  N500    1.931   .     S
Ni492  N490    1.925   1_455 S
C493   N488    1.378   1_445 S
C493   C501    1.392   .     S
C493   C494    1.441   .     S
C494   C489    1.331   1_455 S
C494   H502    0.948   .     S
C496   C503    1.376   .     S
C496   C498    1.439   .     S
C498   H504    0.951   .     S
N499   C505    1.390   .     S
N499   C506    1.389   1_455 S
N500   C507    1.376   .     S
N500   C508    1.382   .     S
C501   C509    1.487   .     S
C501   C508    1.392   1_545 S
C503   C510    1.504   .     S
C503   C506    1.397   .     S
C505   C511    1.379   .     S
C505   C512    1.414   .     S
C506   N499    1.389   1_655 S
C506   C513    1.427   1_655 S
C507   C514    1.445   .     S
C507   C511    1.368   .     S
C508   C515    1.417   .     S
C508   C501    1.392   1_565 S
C509   C516    1.392   .     S
C509   C517    1.380   .     S
C510   C518    1.376   .     S
C510   C519    1.388   .     S
C511   C520    1.492   .     S
C512   H521    0.950   .     S
C512   C513    1.340   .     S
C513   C506    1.427   1_455 S
C513   H522    0.952   .     S
C514   H523    0.951   .     S
C514   C515    1.345   .     S
C515   H524    0.950   .     S
C516   H525    0.950   .     S
C516   C526    1.379   .     S
C517   C527    1.360   .     S
C517   H528    0.950   .     S
C518   H529    0.949   .     S
C518   C530    1.368   .     S
C519   C531    1.372   .     S
C519   H532    0.948   .     S
C520   C533    1.350   .     S
C520   C534    1.361   .     S
C526   H535    0.951   .     S
C526   C536    1.370   .     S
C527   H537    0.951   .     S
C527   C536    1.398   .     S
C530   H538    0.949   .     S
C530   C539    1.366   .     S
C531   H540    0.951   .     S
C531   C539    1.386   .     S
C533   H541    0.948   .     S
C533   C542    1.391   .     S
C534   C543    1.374   .     S
C534   H544    0.952   .     S
C536   P545    1.785   .     S
C539   P546    1.799   .     S
C542   H547    0.950   .     S
C542   C548    1.366   .     S
C543   H549    0.950   .     S
C543   C548    1.374   .     S
P545   O550    1.524   .     S
P545   O654    1.523   1_556 S
P546   O551    1.492   .     S
P546   O552    1.552   .     S
P546   O563    1.514   .     S
C548   P553    1.803   1_556 S
O552   H554    0.820   .     S
P553   C548    1.803   1_554 S
P553   O555    1.540   .     S
P553   O556    1.523   .     S
P553   O557    1.510   1_554 S
O556   H558    0.811   .     S
O557   P553    1.510   1_556 S
Zn559  O560    1.945   .     S
Zn559  O561    1.938   .     S
Zn559  O562    1.937   .     S
Zn559  O563    1.930   .     S
O560   P564    1.505   .     S
O561   P452    1.523   1_554 S
P564   O565    1.528   .     S
P564   O566    1.535   .     S
P564   C567    1.781   .     S
O566   H568    0.811   .     S
C567   C569    1.391   .     S
C567   C570    1.379   .     S
C569   C571    1.378   .     S
C569   H572    0.951   .     S
C570   H573    0.951   .     S
C570   C574    1.386   .     S
C571   C575    1.371   .     S
C571   H576    0.949   .     S
C574   H577    0.950   1_554 S
C574   C575    1.375   .     S
C575   C578    1.486   .     S
H577   C574    0.950   1_556 S
C578   C579    1.368   1_554 S
C578   C580    1.373   .     S
C579   C578    1.368   1_556 S
C579   N581    1.379   .     S
C579   C582    1.429   .     S
C580   N583    1.384   1_554 S
C580   C584    1.432   .     S
N581   Ni585   1.921   .     S
N581   C586    1.378   .     S
C582   C587    1.331   .     S
C582   H588    0.950   .     S
N583   C580    1.384   1_556 S
N583   C589    1.370   1_556 S
N583   Ni585   1.925   .     S
C584   H590    0.950   .     S
C584   C591    1.341   .     S
Ni585  N592    1.927   .     S
Ni585  N593    1.931   .     S
C586   C594    1.392   .     S
C586   C587    1.441   .     S
C587   H595    0.948   .     S
C589   N583    1.370   1_554 S
C589   C596    1.376   .     S
C589   C591    1.439   .     S
C591   H597    0.951   .     S
N592   C598    1.390   .     S
N592   C599    1.389   .     S
N593   C600    1.376   .     S
N593   C601    1.382   .     S
C594   C602    1.487   .     S
C594   C601    1.392   .     S
C596   C603    1.504   .     S
C596   C599    1.397   1_554 S
C598   C604    1.379   .     S
C598   C605    1.414   .     S
C599   C606    1.427   .     S
C599   C596    1.397   1_556 S
C600   C607    1.445   .     S
C600   C604    1.368   .     S
C601   C608    1.417   .     S
C602   C609    1.392   .     S
C602   C610    1.380   .     S
C603   C611    1.376   .     S
C603   C612    1.388   .     S
C604   C613    1.492   .     S
C605   H614    0.950   .     S
C605   C606    1.340   .     S
C606   H615    0.952   .     S
C607   H616    0.951   .     S
C607   C608    1.345   .     S
C608   H617    0.950   .     S
C609   H618    0.950   .     S
C609   C619    1.379   .     S
C610   C620    1.360   .     S
C610   H621    0.950   .     S
C611   H622    0.949   .     S
C611   C623    1.368   .     S
C612   C624    1.372   .     S
C612   H625    0.948   .     S
C613   C626    1.350   .     S
C613   C627    1.361   .     S
C619   H628    0.951   .     S
C619   C629    1.370   .     S
C620   H630    0.951   .     S
C620   C629    1.398   .     S
C623   H631    0.949   .     S
C623   C632    1.366   .     S
C624   H633    0.951   .     S
C624   C632    1.386   .     S
C626   H634    0.948   .     S
C626   C635    1.391   .     S
C627   C636    1.374   .     S
C627   H637    0.952   .     S
C629   P638    1.785   .     S
C632   P639    1.799   .     S
C635   H640    0.950   .     S
C635   C641    1.366   .     S
C636   H642    0.950   .     S
C636   C641    1.374   .     S
P638   O643    1.524   .     S
P639   O644    1.492   .     S
P639   O645    1.552   .     S
C641   P646    1.803   .     S
O645   H647    0.820   .     S
P646   O648    1.540   .     S
P646   O649    1.523   .     S
P646   O650    1.510   .     S
O649   H651    0.811   .     S
Zn652  O653    1.945   .     S
Zn652  O654    1.938   .     S
Zn652  O655    1.937   .     S
Zn652  O656    1.930   .     S
O653   P657    1.505   .     S
O654   P545    1.523   1_554 S
P657   O658    1.528   .     S
P657   O659    1.535   .     S
P657   C660    1.781   .     S
O659   H661    0.811   .     S
C660   C662    1.391   .     S
C660   C663    1.379   .     S
C662   C664    1.378   .     S
C662   H665    0.951   .     S
C663   H666    0.951   .     S
C663   C667    1.386   .     S
C664   C668    1.371   .     S
C664   H669    0.949   .     S
C667   H670    0.950   1_554 S
C667   C668    1.375   .     S
C668   C671    1.486   1_545 S
H670   C667    0.950   1_556 S
C671   C668    1.486   1_565 S
C671   C672    1.368   1_564 S
C671   C673    1.373   .     S
C672   C671    1.368   1_546 S
C672   N674    1.379   1_545 S
C672   C675    1.429   .     S
C673   N676    1.384   1_554 S
C673   C677    1.432   .     S
N674   C672    1.379   1_565 S
N674   Ni678   1.921   1_455 S
N674   C679    1.378   1_465 S
C675   C680    1.331   1_455 S
C675   H681    0.950   .     S
N676   C673    1.384   1_556 S
N676   C682    1.370   1_556 S
N676   Ni678   1.925   1_455 S
C677   H683    0.950   .     S
C677   C684    1.341   .     S
Ni678  N674    1.921   1_655 S
Ni678  N685    1.927   .     S
Ni678  N686    1.931   .     S
Ni678  N676    1.925   1_655 S
C679   N674    1.378   1_645 S
C679   C687    1.392   .     S
C679   C680    1.441   .     S
C680   C675    1.331   1_655 S
C680   H688    0.948   .     S
C682   N676    1.370   1_554 S
C682   C689    1.376   .     S
C682   C684    1.439   .     S
C684   H690    0.951   .     S
N685   C691    1.390   .     S
N685   C692    1.389   1_655 S
N686   C693    1.376   .     S
N686   C694    1.382   .     S
C687   C695    1.487   .     S
C687   C694    1.392   1_545 S
C689   C696    1.504   .     S
C689   C692    1.397   1_554 S
C691   C697    1.379   .     S
C691   C698    1.414   .     S
C692   N685    1.389   1_455 S
C692   C699    1.427   1_455 S
C692   C689    1.397   1_556 S
C693   C700    1.445   .     S
C693   C697    1.368   .     S
C694   C701    1.417   .     S
C694   C687    1.392   1_565 S
C695   C702    1.392   .     S
C695   C703    1.380   .     S
C696   C704    1.376   .     S
C696   C705    1.388   .     S
C697   C706    1.492   .     S
C698   H707    0.950   .     S
C698   C699    1.340   .     S
C699   C692    1.427   1_655 S
C699   H708    0.952   .     S
C700   H709    0.951   .     S
C700   C701    1.345   .     S
C701   H710    0.950   .     S
C702   H711    0.950   .     S
C702   C712    1.379   .     S
C703   C713    1.360   .     S
C703   H714    0.950   .     S
C704   H715    0.949   .     S
C704   C716    1.368   .     S
C705   C717    1.372   .     S
C705   H718    0.948   .     S
C706   C719    1.350   .     S
C706   C720    1.361   .     S
C712   H721    0.951   .     S
C712   C722    1.370   .     S
C713   H723    0.951   .     S
C713   C722    1.398   .     S
C716   H724    0.949   .     S
C716   C725    1.366   .     S
C717   H726    0.951   .     S
C717   C725    1.386   .     S
C719   H727    0.948   .     S
C719   C728    1.391   .     S
C720   C729    1.374   .     S
C720   H730    0.952   .     S
C722   P731    1.785   .     S
C725   P732    1.799   .     S
C728   H733    0.950   .     S
C728   C734    1.366   .     S
C729   H735    0.950   .     S
C729   C734    1.374   .     S
P731   O736    1.524   .     S
P732   O737    1.492   .     S
P732   O738    1.552   .     S
C734   P739    1.803   .     S
O738   H740    0.820   .     S
P739   O741    1.540   .     S
P739   O742    1.523   .     S
P739   O743    1.510   .     S
O742   H744    0.811   .     S
