data_WITJOA_FSR
_audit_creation_date              2024-06-11
_audit_creation_method            'Materials Studio'
_symmetry_space_group_name_H-M    'P1'
_symmetry_Int_Tables_number       1
_symmetry_cell_setting            triclinic
loop_
_symmetry_equiv_pos_as_xyz
  x,y,z
_cell_length_a                    15.9995
_cell_length_b                    18.1852
_cell_length_c                    24.8199
_cell_angle_alpha                 90.0000
_cell_angle_beta                  102.9170
_cell_angle_gamma                 90.0000
loop_
_atom_site_label
_atom_site_type_symbol
_atom_site_fract_x
_atom_site_fract_y
_atom_site_fract_z
_atom_site_U_iso_or_equiv
_atom_site_adp_type
_atom_site_occupancy
Mn1    Mn    0.44614   0.92938   0.52057   0.00000  Uiso   1.00
Mn2    Mn    0.59070   0.88112   0.42317   0.00000  Uiso   1.00
Mn3    Mn    0.53544   0.75007   0.51480   0.00000  Uiso   1.00
S4     S     0.09855   0.74178   0.62098   0.00000  Uiso   1.00
S5     S     0.48144   0.80093   0.86260   0.00000  Uiso   1.00
S6     S     0.95446   0.00258   0.70564   0.00000  Uiso   1.00
O7     O     0.46072   0.87809   0.59708   0.00000  Uiso   1.00
O8     O     0.85373   0.63772   0.96928   0.00000  Uiso   1.00
O9     O     0.53699   0.86308   0.49104   0.00000  Uiso   1.00
H10    H     0.58740   0.87750   0.51940   0.00000  Uiso   1.00
O11    O     0.55362   0.00197   0.55219   0.00000  Uiso   1.00
O12    O     0.35313   0.00168   0.54883   0.00000  Uiso   1.00
O13    O     0.05600   0.70850   0.86898   0.00000  Uiso   1.00
O14    O     0.70835   0.83110   0.46863   0.00000  Uiso   1.00
O15    O     0.53022   0.06763   0.62384   0.00000  Uiso   1.00
O16    O     0.33445   0.05156   0.62591   0.00000  Uiso   1.00
O17    O     0.02950   0.78820   0.93148   0.00000  Uiso   1.00
O18    O     0.67376   0.76009   0.53476   0.00000  Uiso   1.00
O19    O     0.89590   0.75413   0.99045   0.00000  Uiso   1.00
O20    O     0.54860   0.63470   0.53823   0.00000  Uiso   1.00
O21    O     0.53258   0.77201   0.60128   0.00000  Uiso   1.00
O22    O     0.12440   0.68238   0.59034   0.00000  Uiso   1.00
O23    O     0.10280   0.73250   0.67983   0.00000  Uiso   1.00
O24    O     0.42550   0.74110   0.86884   0.00000  Uiso   1.00
O25    O     0.46440   0.87270   0.88122   0.00000  Uiso   1.00
O26    O     0.97940   0.07210   0.73271   0.00000  Uiso   1.00
O27    O     0.99490   0.97810   0.66206   0.00000  Uiso   1.00
C28    C     0.32170   0.00050   0.59112   0.00000  Uiso   1.00
C29    C     0.26450   0.93650   0.59917   0.00000  Uiso   1.00
C30    C     0.23750   0.88700   0.55699   0.00000  Uiso   1.00
H31    H     0.25410   0.89290   0.52370   0.00000  Uiso   1.00
C32    C     0.18620   0.82880   0.56379   0.00000  Uiso   1.00
H33    H     0.16880   0.79520   0.53520   0.00000  Uiso   1.00
C34    C     0.16060   0.81980   0.61233   0.00000  Uiso   1.00
C35    C     0.18620   0.86880   0.65470   0.00000  Uiso   1.00
H36    H     0.16810   0.86270   0.68750   0.00000  Uiso   1.00
C37    C     0.23910   0.92810   0.64905   0.00000  Uiso   1.00
H38    H     0.25700   0.96110   0.67790   0.00000  Uiso   1.00
C39    C     0.99090   0.76230   0.58830   0.00000  Uiso   1.00
C40    C     0.96850   0.78320   0.53450   0.00000  Uiso   1.00
H41    H     0.01050   0.78960   0.51450   0.00000  Uiso   1.00
C42    C     0.88250   0.79510   0.50920   0.00000  Uiso   1.00
H43    H     0.86730   0.81160   0.47280   0.00000  Uiso   1.00
C44    C     0.81930   0.78200   0.53883   0.00000  Uiso   1.00
C45    C     0.84210   0.75830   0.59190   0.00000  Uiso   1.00
H46    H     0.79970   0.74740   0.61090   0.00000  Uiso   1.00
C47    C     0.92870   0.74990   0.61871   0.00000  Uiso   1.00
H48    H     0.94410   0.73640   0.65580   0.00000  Uiso   1.00
C49    C     0.72500   0.79210   0.51121   0.00000  Uiso   1.00
C50    C     0.49590   0.82170   0.62162   0.00000  Uiso   1.00
C51    C     0.49300   0.81680   0.68188   0.00000  Uiso   1.00
C52    C     0.46410   0.87570   0.70764   0.00000  Uiso   1.00
H53    H     0.44670   0.91850   0.68780   0.00000  Uiso   1.00
C54    C     0.46070   0.87170   0.76337   0.00000  Uiso   1.00
H55    H     0.44120   0.91140   0.78080   0.00000  Uiso   1.00
C56    C     0.48690   0.80750   0.79200   0.00000  Uiso   1.00
C57    C     0.51480   0.74720   0.76686   0.00000  Uiso   1.00
H58    H     0.53110   0.70410   0.78670   0.00000  Uiso   1.00
C59    C     0.51820   0.75190   0.71106   0.00000  Uiso   1.00
H60    H     0.53720   0.71210   0.69360   0.00000  Uiso   1.00
C61    C     0.58640   0.77370   0.89540   0.00000  Uiso   1.00
C62    C     0.64810   0.82770   0.91561   0.00000  Uiso   1.00
H63    H     0.63340   0.87720   0.91270   0.00000  Uiso   1.00
C64    C     0.73090   0.80630   0.93984   0.00000  Uiso   1.00
H65    H     0.77240   0.84130   0.95410   0.00000  Uiso   1.00
C66    C     0.75150   0.73090   0.94263   0.00000  Uiso   1.00
C67    C     0.69070   0.67850   0.92177   0.00000  Uiso   1.00
H68    H     0.70560   0.62900   0.92290   0.00000  Uiso   1.00
C69    C     0.60620   0.70040   0.89873   0.00000  Uiso   1.00
H70    H     0.56410   0.66550   0.88580   0.00000  Uiso   1.00
C71    C     0.84220   0.70640   0.96958   0.00000  Uiso   1.00
C72    C     0.57760   0.03080   0.60033   0.00000  Uiso   1.00
C73    C     0.67100   0.02020   0.62847   0.00000  Uiso   1.00
C74    C     0.70690   0.06200   0.67484   0.00000  Uiso   1.00
H75    H     0.67240   0.09380   0.68960   0.00000  Uiso   1.00
C76    C     0.79350   0.05660   0.69928   0.00000  Uiso   1.00
H77    H     0.81790   0.08570   0.72950   0.00000  Uiso   1.00
C78    C     0.84260   0.00700   0.67779   0.00000  Uiso   1.00
C79    C     0.80650   0.96340   0.63259   0.00000  Uiso   1.00
H80    H     0.84020   0.92970   0.61890   0.00000  Uiso   1.00
C81    C     0.72020   0.97040   0.60792   0.00000  Uiso   1.00
H82    H     0.69570   0.94140   0.57760   0.00000  Uiso   1.00
C83    C     0.97130   0.93340   0.75663   0.00000  Uiso   1.00
C84    C     0.96040   0.94920   0.80930   0.00000  Uiso   1.00
H85    H     0.93970   0.99490   0.81710   0.00000  Uiso   1.00
C86    C     0.98070   0.89600   0.85000   0.00000  Uiso   1.00
H87    H     0.97520   0.90670   0.88570   0.00000  Uiso   1.00
C88    C     0.00900   0.82750   0.83840   0.00000  Uiso   1.00
C89    C     0.01680   0.81200   0.78519   0.00000  Uiso   1.00
H90    H     0.03530   0.76570   0.77690   0.00000  Uiso   1.00
C91    C     0.99700   0.86550   0.74390   0.00000  Uiso   1.00
H92    H     0.00140   0.85490   0.70800   0.00000  Uiso   1.00
C93    C     0.03310   0.77070   0.88300   0.00000  Uiso   1.00
H94    H     0.51500   0.62900   0.55990   0.00000  Uiso   1.00
H95    H     0.53800   0.60900   0.50880   0.00000  Uiso   1.00
Mn96   Mn    0.05386   0.42938   0.97943   0.00000  Uiso   1.00
Mn97   Mn    0.90930   0.38112   0.07683   0.00000  Uiso   1.00
Mn98   Mn    0.96456   0.25007   0.98520   0.00000  Uiso   1.00
S99    S     0.40145   0.24178   0.87902   0.00000  Uiso   1.00
S100   S     0.01856   0.30093   0.63740   0.00000  Uiso   1.00
S101   S     0.54554   0.50258   0.79436   0.00000  Uiso   1.00
O102   O     0.03928   0.37809   0.90292   0.00000  Uiso   1.00
O103   O     0.64627   0.13772   0.53072   0.00000  Uiso   1.00
O104   O     0.96301   0.36308   0.00896   0.00000  Uiso   1.00
H105   H     0.91260   0.37750   0.98060   0.00000  Uiso   1.00
O106   O     0.94638   0.50197   0.94781   0.00000  Uiso   1.00
O107   O     0.14687   0.50168   0.95117   0.00000  Uiso   1.00
O108   O     0.44400   0.20850   0.63102   0.00000  Uiso   1.00
O109   O     0.79165   0.33110   0.03137   0.00000  Uiso   1.00
O110   O     0.96978   0.56763   0.87616   0.00000  Uiso   1.00
O111   O     0.16555   0.55156   0.87409   0.00000  Uiso   1.00
O112   O     0.47050   0.28820   0.56852   0.00000  Uiso   1.00
O113   O     0.82624   0.26009   0.96524   0.00000  Uiso   1.00
O114   O     0.60410   0.25413   0.50955   0.00000  Uiso   1.00
O115   O     0.95140   0.13470   0.96177   0.00000  Uiso   1.00
O116   O     0.96742   0.27201   0.89872   0.00000  Uiso   1.00
O117   O     0.37560   0.18238   0.90966   0.00000  Uiso   1.00
O118   O     0.39720   0.23250   0.82017   0.00000  Uiso   1.00
O119   O     0.07450   0.24110   0.63116   0.00000  Uiso   1.00
O120   O     0.03560   0.37270   0.61878   0.00000  Uiso   1.00
O121   O     0.52060   0.57210   0.76729   0.00000  Uiso   1.00
O122   O     0.50510   0.47810   0.83794   0.00000  Uiso   1.00
C123   C     0.17830   0.50050   0.90888   0.00000  Uiso   1.00
C124   C     0.23550   0.43650   0.90083   0.00000  Uiso   1.00
C125   C     0.26250   0.38700   0.94301   0.00000  Uiso   1.00
H126   H     0.24590   0.39290   0.97630   0.00000  Uiso   1.00
C127   C     0.31380   0.32880   0.93621   0.00000  Uiso   1.00
H128   H     0.33120   0.29520   0.96480   0.00000  Uiso   1.00
C129   C     0.33940   0.31980   0.88767   0.00000  Uiso   1.00
C130   C     0.31380   0.36880   0.84530   0.00000  Uiso   1.00
H131   H     0.33190   0.36270   0.81250   0.00000  Uiso   1.00
C132   C     0.26090   0.42810   0.85095   0.00000  Uiso   1.00
H133   H     0.24300   0.46110   0.82210   0.00000  Uiso   1.00
C134   C     0.50910   0.26230   0.91170   0.00000  Uiso   1.00
C135   C     0.53150   0.28320   0.96550   0.00000  Uiso   1.00
H136   H     0.48950   0.28960   0.98550   0.00000  Uiso   1.00
C137   C     0.61750   0.29510   0.99080   0.00000  Uiso   1.00
H138   H     0.63270   0.31160   0.02720   0.00000  Uiso   1.00
C139   C     0.68070   0.28200   0.96117   0.00000  Uiso   1.00
C140   C     0.65790   0.25830   0.90810   0.00000  Uiso   1.00
H141   H     0.70030   0.24740   0.88910   0.00000  Uiso   1.00
C142   C     0.57130   0.24990   0.88129   0.00000  Uiso   1.00
H143   H     0.55590   0.23640   0.84420   0.00000  Uiso   1.00
C144   C     0.77500   0.29210   0.98879   0.00000  Uiso   1.00
C145   C     0.00410   0.32170   0.87838   0.00000  Uiso   1.00
C146   C     0.00700   0.31680   0.81812   0.00000  Uiso   1.00
C147   C     0.03590   0.37570   0.79236   0.00000  Uiso   1.00
H148   H     0.05330   0.41850   0.81220   0.00000  Uiso   1.00
C149   C     0.03930   0.37170   0.73663   0.00000  Uiso   1.00
H150   H     0.05880   0.41140   0.71920   0.00000  Uiso   1.00
C151   C     0.01310   0.30750   0.70800   0.00000  Uiso   1.00
C152   C     0.98520   0.24720   0.73314   0.00000  Uiso   1.00
H153   H     0.96890   0.20410   0.71330   0.00000  Uiso   1.00
C154   C     0.98180   0.25190   0.78894   0.00000  Uiso   1.00
H155   H     0.96280   0.21210   0.80640   0.00000  Uiso   1.00
C156   C     0.91360   0.27370   0.60460   0.00000  Uiso   1.00
C157   C     0.85190   0.32770   0.58439   0.00000  Uiso   1.00
H158   H     0.86660   0.37720   0.58730   0.00000  Uiso   1.00
C159   C     0.76910   0.30630   0.56016   0.00000  Uiso   1.00
H160   H     0.72760   0.34130   0.54590   0.00000  Uiso   1.00
C161   C     0.74850   0.23090   0.55737   0.00000  Uiso   1.00
C162   C     0.80930   0.17850   0.57823   0.00000  Uiso   1.00
H163   H     0.79440   0.12900   0.57710   0.00000  Uiso   1.00
C164   C     0.89380   0.20040   0.60127   0.00000  Uiso   1.00
H165   H     0.93590   0.16550   0.61420   0.00000  Uiso   1.00
C166   C     0.65780   0.20640   0.53042   0.00000  Uiso   1.00
C167   C     0.92240   0.53080   0.89967   0.00000  Uiso   1.00
C168   C     0.82900   0.52020   0.87153   0.00000  Uiso   1.00
C169   C     0.79310   0.56200   0.82516   0.00000  Uiso   1.00
H170   H     0.82760   0.59380   0.81040   0.00000  Uiso   1.00
C171   C     0.70650   0.55660   0.80072   0.00000  Uiso   1.00
H172   H     0.68210   0.58570   0.77050   0.00000  Uiso   1.00
C173   C     0.65740   0.50700   0.82221   0.00000  Uiso   1.00
C174   C     0.69350   0.46340   0.86741   0.00000  Uiso   1.00
H175   H     0.65980   0.42970   0.88110   0.00000  Uiso   1.00
C176   C     0.77980   0.47040   0.89208   0.00000  Uiso   1.00
H177   H     0.80430   0.44140   0.92240   0.00000  Uiso   1.00
C178   C     0.52870   0.43340   0.74337   0.00000  Uiso   1.00
C179   C     0.53960   0.44920   0.69070   0.00000  Uiso   1.00
H180   H     0.56030   0.49490   0.68290   0.00000  Uiso   1.00
C181   C     0.51930   0.39600   0.65000   0.00000  Uiso   1.00
H182   H     0.52480   0.40670   0.61430   0.00000  Uiso   1.00
C183   C     0.49100   0.32750   0.66160   0.00000  Uiso   1.00
C184   C     0.48320   0.31200   0.71481   0.00000  Uiso   1.00
H185   H     0.46470   0.26570   0.72310   0.00000  Uiso   1.00
C186   C     0.50300   0.36550   0.75610   0.00000  Uiso   1.00
H187   H     0.49860   0.35490   0.79200   0.00000  Uiso   1.00
C188   C     0.46690   0.27070   0.61700   0.00000  Uiso   1.00
H189   H     0.98500   0.12900   0.94010   0.00000  Uiso   1.00
H190   H     0.96200   0.10900   0.99120   0.00000  Uiso   1.00
Mn191  Mn    0.55386   0.07062   0.47943   0.00000  Uiso   1.00
Mn192  Mn    0.40930   0.11888   0.57683   0.00000  Uiso   1.00
Mn193  Mn    0.46456   0.24993   0.48520   0.00000  Uiso   1.00
S194   S     0.90145   0.25822   0.37902   0.00000  Uiso   1.00
S195   S     0.51856   0.19907   0.13740   0.00000  Uiso   1.00
S196   S     0.04554   0.99742   0.29436   0.00000  Uiso   1.00
O197   O     0.53928   0.12191   0.40292   0.00000  Uiso   1.00
O198   O     0.14627   0.36228   0.03072   0.00000  Uiso   1.00
O199   O     0.46301   0.13692   0.50896   0.00000  Uiso   1.00
H200   H     0.41260   0.12250   0.48060   0.00000  Uiso   1.00
O201   O     0.44638   0.99803   0.44781   0.00000  Uiso   1.00
O202   O     0.64687   0.99832   0.45117   0.00000  Uiso   1.00
O203   O     0.94400   0.29150   0.13102   0.00000  Uiso   1.00
O204   O     0.29165   0.16890   0.53137   0.00000  Uiso   1.00
O205   O     0.46978   0.93237   0.37616   0.00000  Uiso   1.00
O206   O     0.66555   0.94844   0.37409   0.00000  Uiso   1.00
O207   O     0.97050   0.21180   0.06852   0.00000  Uiso   1.00
O208   O     0.32624   0.23991   0.46524   0.00000  Uiso   1.00
O209   O     0.10410   0.24587   0.00955   0.00000  Uiso   1.00
O210   O     0.45140   0.36530   0.46177   0.00000  Uiso   1.00
O211   O     0.46742   0.22799   0.39872   0.00000  Uiso   1.00
O212   O     0.87560   0.31762   0.40966   0.00000  Uiso   1.00
O213   O     0.89720   0.26750   0.32017   0.00000  Uiso   1.00
O214   O     0.57450   0.25890   0.13116   0.00000  Uiso   1.00
O215   O     0.53560   0.12730   0.11878   0.00000  Uiso   1.00
O216   O     0.02060   0.92790   0.26729   0.00000  Uiso   1.00
O217   O     0.00510   0.02190   0.33794   0.00000  Uiso   1.00
C218   C     0.67830   0.99950   0.40888   0.00000  Uiso   1.00
C219   C     0.73550   0.06350   0.40083   0.00000  Uiso   1.00
C220   C     0.76250   0.11300   0.44301   0.00000  Uiso   1.00
H221   H     0.74590   0.10710   0.47630   0.00000  Uiso   1.00
C222   C     0.81380   0.17120   0.43621   0.00000  Uiso   1.00
H223   H     0.83120   0.20480   0.46480   0.00000  Uiso   1.00
C224   C     0.83940   0.18020   0.38767   0.00000  Uiso   1.00
C225   C     0.81380   0.13120   0.34530   0.00000  Uiso   1.00
H226   H     0.83190   0.13730   0.31250   0.00000  Uiso   1.00
C227   C     0.76090   0.07190   0.35095   0.00000  Uiso   1.00
H228   H     0.74300   0.03890   0.32210   0.00000  Uiso   1.00
C229   C     0.00910   0.23770   0.41170   0.00000  Uiso   1.00
C230   C     0.03150   0.21680   0.46550   0.00000  Uiso   1.00
H231   H     0.98950   0.21040   0.48550   0.00000  Uiso   1.00
C232   C     0.11750   0.20490   0.49080   0.00000  Uiso   1.00
H233   H     0.13270   0.18840   0.52720   0.00000  Uiso   1.00
C234   C     0.18070   0.21800   0.46117   0.00000  Uiso   1.00
C235   C     0.15790   0.24170   0.40810   0.00000  Uiso   1.00
H236   H     0.20030   0.25260   0.38910   0.00000  Uiso   1.00
C237   C     0.07130   0.25010   0.38129   0.00000  Uiso   1.00
H238   H     0.05590   0.26360   0.34420   0.00000  Uiso   1.00
C239   C     0.27500   0.20790   0.48879   0.00000  Uiso   1.00
C240   C     0.50410   0.17830   0.37838   0.00000  Uiso   1.00
C241   C     0.50700   0.18320   0.31812   0.00000  Uiso   1.00
C242   C     0.53590   0.12430   0.29236   0.00000  Uiso   1.00
H243   H     0.55330   0.08150   0.31220   0.00000  Uiso   1.00
C244   C     0.53930   0.12830   0.23663   0.00000  Uiso   1.00
H245   H     0.55880   0.08860   0.21920   0.00000  Uiso   1.00
C246   C     0.51310   0.19250   0.20800   0.00000  Uiso   1.00
C247   C     0.48520   0.25280   0.23314   0.00000  Uiso   1.00
H248   H     0.46890   0.29590   0.21330   0.00000  Uiso   1.00
C249   C     0.48180   0.24810   0.28894   0.00000  Uiso   1.00
H250   H     0.46280   0.28790   0.30640   0.00000  Uiso   1.00
C251   C     0.41360   0.22630   0.10460   0.00000  Uiso   1.00
C252   C     0.35190   0.17230   0.08439   0.00000  Uiso   1.00
H253   H     0.36660   0.12280   0.08730   0.00000  Uiso   1.00
C254   C     0.26910   0.19370   0.06016   0.00000  Uiso   1.00
H255   H     0.22760   0.15870   0.04590   0.00000  Uiso   1.00
C256   C     0.24850   0.26910   0.05737   0.00000  Uiso   1.00
C257   C     0.30930   0.32150   0.07823   0.00000  Uiso   1.00
H258   H     0.29440   0.37100   0.07710   0.00000  Uiso   1.00
C259   C     0.39380   0.29960   0.10127   0.00000  Uiso   1.00
H260   H     0.43590   0.33450   0.11420   0.00000  Uiso   1.00
C261   C     0.15780   0.29360   0.03042   0.00000  Uiso   1.00
C262   C     0.42240   0.96920   0.39967   0.00000  Uiso   1.00
C263   C     0.32900   0.97980   0.37153   0.00000  Uiso   1.00
C264   C     0.29310   0.93800   0.32516   0.00000  Uiso   1.00
H265   H     0.32760   0.90620   0.31040   0.00000  Uiso   1.00
C266   C     0.20650   0.94340   0.30072   0.00000  Uiso   1.00
H267   H     0.18210   0.91430   0.27050   0.00000  Uiso   1.00
C268   C     0.15740   0.99300   0.32221   0.00000  Uiso   1.00
C269   C     0.19350   0.03660   0.36741   0.00000  Uiso   1.00
H270   H     0.15980   0.07030   0.38110   0.00000  Uiso   1.00
C271   C     0.27980   0.02960   0.39208   0.00000  Uiso   1.00
H272   H     0.30430   0.05860   0.42240   0.00000  Uiso   1.00
C273   C     0.02870   0.06660   0.24337   0.00000  Uiso   1.00
C274   C     0.03960   0.05080   0.19070   0.00000  Uiso   1.00
H275   H     0.06030   0.00510   0.18290   0.00000  Uiso   1.00
C276   C     0.01930   0.10400   0.15000   0.00000  Uiso   1.00
H277   H     0.02480   0.09330   0.11430   0.00000  Uiso   1.00
C278   C     0.99100   0.17250   0.16160   0.00000  Uiso   1.00
C279   C     0.98320   0.18800   0.21481   0.00000  Uiso   1.00
H280   H     0.96470   0.23430   0.22310   0.00000  Uiso   1.00
C281   C     0.00300   0.13450   0.25610   0.00000  Uiso   1.00
H282   H     0.99860   0.14510   0.29200   0.00000  Uiso   1.00
C283   C     0.96690   0.22930   0.11700   0.00000  Uiso   1.00
H284   H     0.48500   0.37100   0.44010   0.00000  Uiso   1.00
H285   H     0.46200   0.39100   0.49120   0.00000  Uiso   1.00
Mn286  Mn    0.94614   0.57062   0.02057   0.00000  Uiso   1.00
Mn287  Mn    0.09070   0.61888   0.92317   0.00000  Uiso   1.00
Mn288  Mn    0.03544   0.74993   0.01480   0.00000  Uiso   1.00
S289   S     0.59855   0.75822   0.12098   0.00000  Uiso   1.00
S290   S     0.98144   0.69907   0.36260   0.00000  Uiso   1.00
S291   S     0.45446   0.49742   0.20564   0.00000  Uiso   1.00
O292   O     0.96072   0.62191   0.09708   0.00000  Uiso   1.00
O293   O     0.35373   0.86228   0.46928   0.00000  Uiso   1.00
O294   O     0.03699   0.63692   0.99104   0.00000  Uiso   1.00
H295   H     0.08740   0.62250   0.01940   0.00000  Uiso   1.00
O296   O     0.05362   0.49803   0.05219   0.00000  Uiso   1.00
O297   O     0.85313   0.49832   0.04883   0.00000  Uiso   1.00
O298   O     0.55600   0.79150   0.36898   0.00000  Uiso   1.00
O299   O     0.20835   0.66890   0.96863   0.00000  Uiso   1.00
O300   O     0.03022   0.43237   0.12384   0.00000  Uiso   1.00
O301   O     0.83445   0.44844   0.12591   0.00000  Uiso   1.00
O302   O     0.52950   0.71180   0.43148   0.00000  Uiso   1.00
O303   O     0.17376   0.73991   0.03476   0.00000  Uiso   1.00
O304   O     0.39590   0.74587   0.49045   0.00000  Uiso   1.00
O305   O     0.04860   0.86530   0.03823   0.00000  Uiso   1.00
O306   O     0.03258   0.72799   0.10128   0.00000  Uiso   1.00
O307   O     0.62440   0.81762   0.09034   0.00000  Uiso   1.00
O308   O     0.60280   0.76750   0.17983   0.00000  Uiso   1.00
O309   O     0.92550   0.75890   0.36884   0.00000  Uiso   1.00
O310   O     0.96440   0.62730   0.38122   0.00000  Uiso   1.00
O311   O     0.47940   0.42790   0.23271   0.00000  Uiso   1.00
O312   O     0.49490   0.52190   0.16206   0.00000  Uiso   1.00
C313   C     0.82170   0.49950   0.09112   0.00000  Uiso   1.00
C314   C     0.76450   0.56350   0.09917   0.00000  Uiso   1.00
C315   C     0.73750   0.61300   0.05699   0.00000  Uiso   1.00
H316   H     0.75410   0.60710   0.02370   0.00000  Uiso   1.00
C317   C     0.68620   0.67120   0.06379   0.00000  Uiso   1.00
H318   H     0.66880   0.70480   0.03520   0.00000  Uiso   1.00
C319   C     0.66060   0.68020   0.11233   0.00000  Uiso   1.00
C320   C     0.68620   0.63120   0.15470   0.00000  Uiso   1.00
H321   H     0.66810   0.63730   0.18750   0.00000  Uiso   1.00
C322   C     0.73910   0.57190   0.14905   0.00000  Uiso   1.00
H323   H     0.75700   0.53890   0.17790   0.00000  Uiso   1.00
C324   C     0.49090   0.73770   0.08830   0.00000  Uiso   1.00
C325   C     0.46850   0.71680   0.03450   0.00000  Uiso   1.00
H326   H     0.51050   0.71040   0.01450   0.00000  Uiso   1.00
C327   C     0.38250   0.70490   0.00920   0.00000  Uiso   1.00
H328   H     0.36730   0.68840   0.97280   0.00000  Uiso   1.00
C329   C     0.31930   0.71800   0.03883   0.00000  Uiso   1.00
C330   C     0.34210   0.74170   0.09190   0.00000  Uiso   1.00
H331   H     0.29970   0.75260   0.11090   0.00000  Uiso   1.00
C332   C     0.42870   0.75010   0.11871   0.00000  Uiso   1.00
H333   H     0.44410   0.76360   0.15580   0.00000  Uiso   1.00
C334   C     0.22500   0.70790   0.01121   0.00000  Uiso   1.00
C335   C     0.99590   0.67830   0.12162   0.00000  Uiso   1.00
C336   C     0.99300   0.68320   0.18188   0.00000  Uiso   1.00
C337   C     0.96410   0.62430   0.20764   0.00000  Uiso   1.00
H338   H     0.94670   0.58150   0.18780   0.00000  Uiso   1.00
C339   C     0.96070   0.62830   0.26337   0.00000  Uiso   1.00
H340   H     0.94120   0.58860   0.28080   0.00000  Uiso   1.00
C341   C     0.98690   0.69250   0.29200   0.00000  Uiso   1.00
C342   C     0.01480   0.75280   0.26686   0.00000  Uiso   1.00
H343   H     0.03110   0.79590   0.28670   0.00000  Uiso   1.00
C344   C     0.01820   0.74810   0.21106   0.00000  Uiso   1.00
H345   H     0.03720   0.78790   0.19360   0.00000  Uiso   1.00
C346   C     0.08640   0.72630   0.39540   0.00000  Uiso   1.00
C347   C     0.14810   0.67230   0.41561   0.00000  Uiso   1.00
H348   H     0.13340   0.62280   0.41270   0.00000  Uiso   1.00
C349   C     0.23090   0.69370   0.43984   0.00000  Uiso   1.00
H350   H     0.27240   0.65870   0.45410   0.00000  Uiso   1.00
C351   C     0.25150   0.76910   0.44263   0.00000  Uiso   1.00
C352   C     0.19070   0.82150   0.42177   0.00000  Uiso   1.00
H353   H     0.20560   0.87100   0.42290   0.00000  Uiso   1.00
C354   C     0.10620   0.79960   0.39873   0.00000  Uiso   1.00
H355   H     0.06410   0.83450   0.38580   0.00000  Uiso   1.00
C356   C     0.34220   0.79360   0.46958   0.00000  Uiso   1.00
C357   C     0.07760   0.46920   0.10033   0.00000  Uiso   1.00
C358   C     0.17100   0.47980   0.12847   0.00000  Uiso   1.00
C359   C     0.20690   0.43800   0.17484   0.00000  Uiso   1.00
H360   H     0.17240   0.40620   0.18960   0.00000  Uiso   1.00
C361   C     0.29350   0.44340   0.19928   0.00000  Uiso   1.00
H362   H     0.31790   0.41430   0.22950   0.00000  Uiso   1.00
C363   C     0.34260   0.49300   0.17779   0.00000  Uiso   1.00
C364   C     0.30650   0.53660   0.13259   0.00000  Uiso   1.00
H365   H     0.34020   0.57030   0.11890   0.00000  Uiso   1.00
C366   C     0.22020   0.52960   0.10792   0.00000  Uiso   1.00
H367   H     0.19570   0.55860   0.07760   0.00000  Uiso   1.00
C368   C     0.47130   0.56660   0.25663   0.00000  Uiso   1.00
C369   C     0.46040   0.55080   0.30930   0.00000  Uiso   1.00
H370   H     0.43970   0.50510   0.31710   0.00000  Uiso   1.00
C371   C     0.48070   0.60400   0.35000   0.00000  Uiso   1.00
H372   H     0.47520   0.59330   0.38570   0.00000  Uiso   1.00
C373   C     0.50900   0.67250   0.33840   0.00000  Uiso   1.00
C374   C     0.51680   0.68800   0.28519   0.00000  Uiso   1.00
H375   H     0.53530   0.73430   0.27690   0.00000  Uiso   1.00
C376   C     0.49700   0.63450   0.24390   0.00000  Uiso   1.00
H377   H     0.50140   0.64510   0.20800   0.00000  Uiso   1.00
C378   C     0.53310   0.72930   0.38300   0.00000  Uiso   1.00
H379   H     0.01500   0.87100   0.05990   0.00000  Uiso   1.00
H380   H     0.03800   0.89100   0.00880   0.00000  Uiso   1.00
loop_
_geom_bond_atom_site_label_1
_geom_bond_atom_site_label_2
_geom_bond_distance
_geom_bond_site_symmetry_2
_ccdc_geom_bond_type
Mn1    O7      2.081   .     S
Mn1    O9      2.140   .     S
Mn1    O11     2.171   1_565 S
Mn1    O12     2.214   1_565 S
Mn1    O293    2.110   .     S
Mn1    O201    2.196   .     S
Mn2    O9      2.081   .     S
Mn2    O202    2.357   .     S
Mn2    O298    2.107   .     S
Mn2    O14     2.167   .     S
Mn2    O205    2.228   .     S
Mn2    O206    2.251   .     S
Mn3    O9      2.140   .     S
Mn3    O20     2.175   .     S
Mn3    O21     2.194   .     S
Mn3    O302    2.164   .     S
Mn3    O18     2.165   .     S
Mn3    O304    2.180   .     S
S4     O22     1.434   .     S
S4     O23     1.457   .     S
S4     C34     1.772   .     S
S4     C39     1.772   1_455 S
S5     O24     1.439   .     S
S5     O25     1.431   .     S
S5     C56     1.778   .     S
S5     C61     1.765   .     S
S6     O26     1.445   .     S
S6     O27     1.449   1_545 S
S6     C78     1.770   .     S
S6     C83     1.762   1_545 S
O7     C50     1.259   .     S
O8     C71     1.263   .     S
O8     Mn286   2.110   1_556 S
O9     H10     0.980   .     S
O11    Mn1     2.171   1_545 S
O11    C72     1.282   .     S
O11    Mn191   2.196   .     S
O12    Mn1     2.214   1_545 S
O12    C28     1.261   .     S
O12    Mn192   2.357   .     S
O13    C93     1.262   .     S
O13    Mn287   2.107   .     S
O14    C49     1.251   .     S
O15    C72     1.250   .     S
O15    Mn192   2.228   .     S
O16    C28     1.253   .     S
O16    Mn192   2.251   .     S
O17    C93     1.258   .     S
O17    Mn288   2.164   1_556 S
O18    C49     1.252   .     S
O19    C71     1.249   .     S
O19    Mn288   2.180   1_656 S
O20    H94     0.848   .     S
O20    H95     0.852   .     S
O21    C50     1.244   .     S
O27    S6      1.449   1_565 S
C28    C29     1.521   1_545 S
C29    C28     1.521   1_565 S
C29    C30     1.375   .     S
C29    C37     1.395   .     S
C30    H31     0.929   .     S
C30    C32     1.373   .     S
C32    H33     0.931   .     S
C32    C34     1.366   .     S
C34    C35     1.369   .     S
C35    H36     0.930   .     S
C35    C37     1.397   .     S
C37    H38     0.929   .     S
C39    S4      1.772   1_655 S
C39    C40     1.357   .     S
C39    C47     1.395   .     S
C40    H41     0.928   1_655 S
C40    C42     1.396   .     S
H41    C40     0.928   1_455 S
C42    H43     0.931   .     S
C42    C44     1.397   .     S
C44    C45     1.356   .     S
C44    C49     1.522   .     S
C45    H46     0.930   .     S
C45    C47     1.405   .     S
C47    H48     0.931   .     S
C50    C51     1.509   .     S
C51    C52     1.379   .     S
C51    C59     1.396   .     S
C52    H53     0.930   .     S
C52    C54     1.398   .     S
C54    H55     0.931   .     S
C54    C56     1.382   .     S
C56    C57     1.384   .     S
C57    H58     0.931   .     S
C57    C59     1.401   .     S
C59    H60     0.929   .     S
C61    C62     1.403   .     S
C61    C69     1.368   .     S
C62    H63     0.929   .     S
C62    C64     1.383   .     S
C64    H65     0.931   .     S
C64    C66     1.408   .     S
C66    C67     1.377   .     S
C66    C71     1.522   .     S
C67    H68     0.930   .     S
C67    C69     1.403   .     S
C69    H70     0.929   .     S
C72    C73     1.514   .     S
C73    C74     1.392   .     S
C73    C81     1.371   1_545 S
C74    H75     0.929   .     S
C74    C76     1.386   .     S
C76    H77     0.930   .     S
C76    C78     1.379   .     S
C78    C79     1.390   1_545 S
C79    C78     1.390   1_565 S
C79    H80     0.929   .     S
C79    C81     1.386   .     S
C81    C73     1.371   1_565 S
C81    H82     0.931   .     S
C83    S6      1.762   1_565 S
C83    C84     1.387   .     S
C83    C91     1.361   .     S
C84    H85     0.931   .     S
C84    C86     1.384   .     S
C86    H87     0.930   .     S
C86    C88     1.378   1_655 S
C88    C86     1.378   1_455 S
C88    C89     1.383   .     S
C88    C93     1.500   .     S
C89    H90     0.931   .     S
C89    C91     1.397   1_455 S
C91    H92     0.930   1_655 S
C91    C89     1.397   1_655 S
H92    C91     0.930   1_455 S
Mn96   O102    2.081   .     S
Mn96   O104    2.140   1_456 S
Mn96   O106    2.171   1_455 S
Mn96   O107    2.214   .     S
Mn96   O198    2.110   1_556 S
Mn96   O296    2.196   1_556 S
Mn97   O104    2.081   .     S
Mn97   O297    2.357   .     S
Mn97   O203    2.107   .     S
Mn97   O109    2.167   .     S
Mn97   O300    2.228   1_655 S
Mn97   O301    2.251   .     S
Mn98   O104    2.140   1_556 S
Mn98   O115    2.175   .     S
Mn98   O116    2.194   .     S
Mn98   O207    2.164   1_556 S
Mn98   O113    2.165   .     S
Mn98   O209    2.180   1_656 S
S99    O117    1.434   .     S
S99    O118    1.457   .     S
S99    C129    1.772   .     S
S99    C134    1.772   .     S
S100   O119    1.439   .     S
S100   O120    1.431   .     S
S100   C151    1.778   .     S
S100   C156    1.765   1_455 S
S101   O121    1.445   .     S
S101   O122    1.449   .     S
S101   C173    1.770   .     S
S101   C178    1.762   .     S
O102   C145    1.259   .     S
O103   C166    1.263   .     S
O103   Mn191   2.110   .     S
O104   Mn98    2.140   1_554 S
O104   Mn96    2.140   1_654 S
O104   H105    0.980   1_554 S
H105   O104    0.980   1_556 S
O106   Mn96    2.171   1_655 S
O106   C167    1.282   .     S
O106   Mn286   2.196   1_556 S
O107   C123    1.261   .     S
O107   Mn287   2.357   .     S
O108   C188    1.262   .     S
O108   Mn192   2.107   .     S
O109   C144    1.251   1_554 S
O110   C167    1.250   .     S
O110   Mn287   2.228   1_655 S
O111   C123    1.253   .     S
O111   Mn287   2.251   .     S
O112   C188    1.258   .     S
O112   Mn193   2.164   .     S
O113   C144    1.252   .     S
O114   C166    1.249   .     S
O114   Mn193   2.180   .     S
O115   H189    0.848   .     S
O115   H190    0.852   .     S
O116   C145    1.244   1_655 S
C123   C124    1.521   .     S
C124   C125    1.375   .     S
C124   C132    1.395   .     S
C125   H126    0.929   .     S
C125   C127    1.373   .     S
C127   H128    0.931   .     S
C127   C129    1.366   .     S
C129   C130    1.369   .     S
C130   H131    0.930   .     S
C130   C132    1.397   .     S
C132   H133    0.929   .     S
C134   C135    1.357   .     S
C134   C142    1.395   .     S
C135   H136    0.928   .     S
C135   C137    1.396   .     S
C137   H138    0.931   1_556 S
C137   C139    1.397   .     S
H138   C137    0.931   1_554 S
C139   C140    1.356   .     S
C139   C144    1.522   .     S
C140   H141    0.930   .     S
C140   C142    1.405   .     S
C142   H143    0.931   .     S
C144   O109    1.251   1_556 S
C145   O116    1.244   1_455 S
C145   C146    1.509   .     S
C146   C147    1.379   .     S
C146   C154    1.396   1_455 S
C147   H148    0.930   .     S
C147   C149    1.398   .     S
C149   H150    0.931   .     S
C149   C151    1.382   .     S
C151   C152    1.384   1_455 S
C152   C151    1.384   1_655 S
C152   H153    0.931   .     S
C152   C154    1.401   .     S
C154   C146    1.396   1_655 S
C154   H155    0.929   .     S
C156   S100    1.765   1_655 S
C156   C157    1.403   .     S
C156   C164    1.368   .     S
C157   H158    0.929   .     S
C157   C159    1.383   .     S
C159   H160    0.931   .     S
C159   C161    1.408   .     S
C161   C162    1.377   .     S
C161   C166    1.522   .     S
C162   H163    0.930   .     S
C162   C164    1.403   .     S
C164   H165    0.929   .     S
C167   C168    1.514   .     S
C168   C169    1.392   .     S
C168   C176    1.371   .     S
C169   H170    0.929   .     S
C169   C171    1.386   .     S
C171   H172    0.930   .     S
C171   C173    1.379   .     S
C173   C174    1.390   .     S
C174   H175    0.929   .     S
C174   C176    1.386   .     S
C176   H177    0.931   .     S
C178   C179    1.387   .     S
C178   C186    1.361   .     S
C179   H180    0.931   .     S
C179   C181    1.384   .     S
C181   H182    0.930   .     S
C181   C183    1.378   .     S
C183   C184    1.383   .     S
C183   C188    1.500   .     S
C184   H185    0.931   .     S
C184   C186    1.397   .     S
C186   H187    0.930   .     S
Mn191  O197    2.081   .     S
Mn191  O199    2.140   .     S
Mn191  O201    2.171   1_545 S
Mn191  O202    2.214   1_545 S
Mn192  O199    2.081   .     S
Mn192  O204    2.167   .     S
Mn193  O199    2.140   .     S
Mn193  O210    2.175   .     S
Mn193  O211    2.194   .     S
Mn193  O208    2.165   .     S
S194   O212    1.434   .     S
S194   O213    1.457   .     S
S194   C224    1.772   .     S
S194   C229    1.772   1_655 S
S195   O214    1.439   .     S
S195   O215    1.431   .     S
S195   C246    1.778   .     S
S195   C251    1.765   .     S
S196   O216    1.445   .     S
S196   O217    1.449   1_565 S
S196   C268    1.770   .     S
S196   C273    1.762   1_565 S
O197   C240    1.259   .     S
O198   C261    1.263   .     S
O198   Mn96    2.110   1_554 S
O199   H200    0.980   .     S
O201   Mn191   2.171   1_565 S
O201   C262    1.282   .     S
O202   Mn191   2.214   1_565 S
O202   C218    1.261   .     S
O203   C283    1.262   .     S
O204   C239    1.251   .     S
O205   C262    1.250   .     S
O206   C218    1.253   .     S
O207   C283    1.258   .     S
O207   Mn98    2.164   1_554 S
O208   C239    1.252   .     S
O209   C261    1.249   .     S
O209   Mn98    2.180   1_454 S
O210   H284    0.848   .     S
O210   H285    0.852   .     S
O211   C240    1.244   .     S
O217   S196    1.449   1_545 S
C218   C219    1.521   1_565 S
C219   C218    1.521   1_545 S
C219   C220    1.375   .     S
C219   C227    1.395   .     S
C220   H221    0.929   .     S
C220   C222    1.373   .     S
C222   H223    0.931   .     S
C222   C224    1.366   .     S
C224   C225    1.369   .     S
C225   H226    0.930   .     S
C225   C227    1.397   .     S
C227   H228    0.929   .     S
C229   S194    1.772   1_455 S
C229   C230    1.357   .     S
C229   C237    1.395   .     S
C230   H231    0.928   1_455 S
C230   C232    1.396   .     S
H231   C230    0.928   1_655 S
C232   H233    0.931   .     S
C232   C234    1.397   .     S
C234   C235    1.356   .     S
C234   C239    1.522   .     S
C235   H236    0.930   .     S
C235   C237    1.405   .     S
C237   H238    0.931   .     S
C240   C241    1.509   .     S
C241   C242    1.379   .     S
C241   C249    1.396   .     S
C242   H243    0.930   .     S
C242   C244    1.398   .     S
C244   H245    0.931   .     S
C244   C246    1.382   .     S
C246   C247    1.384   .     S
C247   H248    0.931   .     S
C247   C249    1.401   .     S
C249   H250    0.929   .     S
C251   C252    1.403   .     S
C251   C259    1.368   .     S
C252   H253    0.929   .     S
C252   C254    1.383   .     S
C254   H255    0.931   .     S
C254   C256    1.408   .     S
C256   C257    1.377   .     S
C256   C261    1.522   .     S
C257   H258    0.930   .     S
C257   C259    1.403   .     S
C259   H260    0.929   .     S
C262   C263    1.514   .     S
C263   C264    1.392   .     S
C263   C271    1.371   1_565 S
C264   H265    0.929   .     S
C264   C266    1.386   .     S
C266   H267    0.930   .     S
C266   C268    1.379   .     S
C268   C269    1.390   1_565 S
C269   C268    1.390   1_545 S
C269   H270    0.929   .     S
C269   C271    1.386   .     S
C271   C263    1.371   1_545 S
C271   H272    0.931   .     S
C273   S196    1.762   1_545 S
C273   C274    1.387   .     S
C273   C281    1.361   .     S
C274   H275    0.931   .     S
C274   C276    1.384   .     S
C276   H277    0.930   .     S
C276   C278    1.378   1_455 S
C278   C276    1.378   1_655 S
C278   C279    1.383   .     S
C278   C283    1.500   .     S
C279   H280    0.931   .     S
C279   C281    1.397   1_655 S
C281   H282    0.930   1_455 S
C281   C279    1.397   1_455 S
H282   C281    0.930   1_655 S
Mn286  O292    2.081   .     S
Mn286  O294    2.140   1_654 S
Mn286  O296    2.171   1_655 S
Mn286  O297    2.214   .     S
Mn286  O8      2.110   1_554 S
Mn286  O106    2.196   1_554 S
Mn287  O294    2.081   .     S
Mn287  O299    2.167   .     S
Mn287  O110    2.228   1_455 S
Mn288  O294    2.140   1_554 S
Mn288  O305    2.175   .     S
Mn288  O306    2.194   .     S
Mn288  O17     2.164   1_554 S
Mn288  O303    2.165   .     S
Mn288  O19     2.180   1_454 S
S289   O307    1.434   .     S
S289   O308    1.457   .     S
S289   C319    1.772   .     S
S289   C324    1.772   .     S
S290   O309    1.439   .     S
S290   O310    1.431   .     S
S290   C341    1.778   .     S
S290   C346    1.765   1_655 S
S291   O311    1.445   .     S
S291   O312    1.449   .     S
S291   C363    1.770   .     S
S291   C368    1.762   .     S
O292   C335    1.259   .     S
O293   C356    1.263   .     S
O294   Mn288   2.140   1_556 S
O294   Mn286   2.140   1_456 S
O294   H295    0.980   1_556 S
H295   O294    0.980   1_554 S
O296   Mn286   2.171   1_455 S
O296   C357    1.282   .     S
O296   Mn96    2.196   1_554 S
O297   C313    1.261   .     S
O298   C378    1.262   .     S
O299   C334    1.251   1_556 S
O300   C357    1.250   .     S
O300   Mn97    2.228   1_455 S
O301   C313    1.253   .     S
O302   C378    1.258   .     S
O303   C334    1.252   .     S
O304   C356    1.249   .     S
O305   H379    0.848   .     S
O305   H380    0.852   .     S
O306   C335    1.244   1_455 S
C313   C314    1.521   .     S
C314   C315    1.375   .     S
C314   C322    1.395   .     S
C315   H316    0.929   .     S
C315   C317    1.373   .     S
C317   H318    0.931   .     S
C317   C319    1.366   .     S
C319   C320    1.369   .     S
C320   H321    0.930   .     S
C320   C322    1.397   .     S
C322   H323    0.929   .     S
C324   C325    1.357   .     S
C324   C332    1.395   .     S
C325   H326    0.928   .     S
C325   C327    1.396   .     S
C327   H328    0.931   1_554 S
C327   C329    1.397   .     S
H328   C327    0.931   1_556 S
C329   C330    1.356   .     S
C329   C334    1.522   .     S
C330   H331    0.930   .     S
C330   C332    1.405   .     S
C332   H333    0.931   .     S
C334   O299    1.251   1_554 S
C335   O306    1.244   1_655 S
C335   C336    1.509   .     S
C336   C337    1.379   .     S
C336   C344    1.396   1_655 S
C337   H338    0.930   .     S
C337   C339    1.398   .     S
C339   H340    0.931   .     S
C339   C341    1.382   .     S
C341   C342    1.384   1_655 S
C342   C341    1.384   1_455 S
C342   H343    0.931   .     S
C342   C344    1.401   .     S
C344   C336    1.396   1_455 S
C344   H345    0.929   .     S
C346   S290    1.765   1_455 S
C346   C347    1.403   .     S
C346   C354    1.368   .     S
C347   H348    0.929   .     S
C347   C349    1.383   .     S
C349   H350    0.931   .     S
C349   C351    1.408   .     S
C351   C352    1.377   .     S
C351   C356    1.522   .     S
C352   H353    0.930   .     S
C352   C354    1.403   .     S
C354   H355    0.929   .     S
C357   C358    1.514   .     S
C358   C359    1.392   .     S
C358   C366    1.371   .     S
C359   H360    0.929   .     S
C359   C361    1.386   .     S
C361   H362    0.930   .     S
C361   C363    1.379   .     S
C363   C364    1.390   .     S
C364   H365    0.929   .     S
C364   C366    1.386   .     S
C366   H367    0.931   .     S
C368   C369    1.387   .     S
C368   C376    1.361   .     S
C369   H370    0.931   .     S
C369   C371    1.384   .     S
C371   H372    0.930   .     S
C371   C373    1.378   .     S
C373   C374    1.383   .     S
C373   C378    1.500   .     S
C374   H375    0.931   .     S
C374   C376    1.397   .     S
C376   H377    0.930   .     S
