data_WITJUG_FSR
_audit_creation_date              2024-06-11
_audit_creation_method            'Materials Studio'
_symmetry_space_group_name_H-M    'P1'
_symmetry_Int_Tables_number       1
_symmetry_cell_setting            triclinic
loop_
_symmetry_equiv_pos_as_xyz
  x,y,z
_cell_length_a                    18.0352
_cell_length_b                    25.8676
_cell_length_c                    18.0584
_cell_angle_alpha                 90.0000
_cell_angle_beta                  118.8610
_cell_angle_gamma                 90.0000
loop_
_atom_site_label
_atom_site_type_symbol
_atom_site_fract_x
_atom_site_fract_y
_atom_site_fract_z
_atom_site_U_iso_or_equiv
_atom_site_adp_type
_atom_site_occupancy
Mn1    Mn    0.92690   0.08314   0.80158   0.00000  Uiso   1.00
Mn2    Mn    0.89337   0.00004   0.10682   0.00000  Uiso   1.00
Mn3    Mn    0.80174   0.08320   0.92708   0.00000  Uiso   1.00
S4     S     0.53421   0.90386   0.53407   0.00000  Uiso   1.00
S5     S     0.43971   0.82377   0.77180   0.00000  Uiso   1.00
S6     S     0.77240   0.82386   0.44001   0.00000  Uiso   1.00
O7     O     0.91579   0.04786   0.02127   0.00000  Uiso   1.00
O8     O     0.02073   0.04811   0.91508   0.00000  Uiso   1.00
O9     O     0.89050   0.96758   0.89010   0.00000  Uiso   1.00
O10    O     0.62930   0.65311   0.55920   0.00000  Uiso   1.00
O11    O     0.23030   0.88629   0.98130   0.00000  Uiso   1.00
O12    O     0.72040   0.01703   0.90460   0.00000  Uiso   1.00
O13    O     0.69360   0.12280   0.82450   0.00000  Uiso   1.00
O14    O     0.83730   0.04624   0.83710   0.00000  Uiso   1.00
O15    O     0.55910   0.65322   0.62900   0.00000  Uiso   1.00
O16    O     0.98190   0.88561   0.23110   0.00000  Uiso   1.00
O17    O     0.90500   0.01695   0.72110   0.00000  Uiso   1.00
O18    O     0.82370   0.12281   0.69300   0.00000  Uiso   1.00
O19    O     0.19200   0.94820   0.88770   0.00000  Uiso   1.00
O20    O     0.88720   0.94830   0.19180   0.00000  Uiso   1.00
O21    O     0.79310   0.95812   0.00420   0.00000  Uiso   1.00
O22    O     0.00350   0.95819   0.79250   0.00000  Uiso   1.00
O23    O     0.54040   0.91909   0.46060   0.00000  Uiso   1.00
O24    O     0.46100   0.91918   0.54000   0.00000  Uiso   1.00
O25    O     0.39610   0.83130   0.68120   0.00000  Uiso   1.00
O26    O     0.47020   0.77321   0.80500   0.00000  Uiso   1.00
O27    O     0.68420   0.82970   0.39770   0.00000  Uiso   1.00
O28    O     0.80510   0.77263   0.46980   0.00000  Uiso   1.00
C29    C     0.83570   0.99622   0.83550   0.00000  Uiso   1.00
C30    C     0.76110   0.97305   0.76130   0.00000  Uiso   1.00
C31    C     0.69990   0.00270   0.69990   0.00000  Uiso   1.00
H32    H     0.70530   0.03850   0.70510   0.00000  Uiso   1.00
C33    C     0.63040   0.98249   0.63050   0.00000  Uiso   1.00
H34    H     0.58960   0.00380   0.58970   0.00000  Uiso   1.00
C35    C     0.62380   0.92861   0.62390   0.00000  Uiso   1.00
C36    C     0.68560   0.89773   0.68520   0.00000  Uiso   1.00
H37    H     0.68130   0.86190   0.68040   0.00000  Uiso   1.00
C38    C     0.75230   0.91975   0.75210   0.00000  Uiso   1.00
H39    H     0.79330   0.89860   0.79300   0.00000  Uiso   1.00
C40    C     0.54520   0.83693   0.54520   0.00000  Uiso   1.00
C41    C     0.51370   0.81048   0.59040   0.00000  Uiso   1.00
H42    H     0.48430   0.82820   0.61290   0.00000  Uiso   1.00
C43    C     0.52570   0.75839   0.60240   0.00000  Uiso   1.00
H44    H     0.50260   0.74080   0.63130   0.00000  Uiso   1.00
C45    C     0.57190   0.73137   0.57200   0.00000  Uiso   1.00
C46    C     0.60300   0.75818   0.52620   0.00000  Uiso   1.00
H47    H     0.63270   0.74050   0.50390   0.00000  Uiso   1.00
C48    C     0.59030   0.81079   0.51330   0.00000  Uiso   1.00
H49    H     0.61220   0.82850   0.48330   0.00000  Uiso   1.00
C50    C     0.58780   0.67495   0.58750   0.00000  Uiso   1.00
C51    C     0.73170   0.97360   0.93890   0.00000  Uiso   1.00
C52    C     0.65760   0.93700   0.89570   0.00000  Uiso   1.00
C53    C     0.59240   0.94560   0.81410   0.00000  Uiso   1.00
H54    H     0.59290   0.97560   0.78600   0.00000  Uiso   1.00
C55    C     0.52570   0.91030   0.77300   0.00000  Uiso   1.00
H56    H     0.48340   0.91670   0.71790   0.00000  Uiso   1.00
C57    C     0.52300   0.86700   0.81390   0.00000  Uiso   1.00
C58    C     0.58650   0.85700   0.89440   0.00000  Uiso   1.00
H59    H     0.58370   0.82700   0.92130   0.00000  Uiso   1.00
C60    C     0.65760   0.89150   0.93880   0.00000  Uiso   1.00
H61    H     0.70100   0.88410   0.99290   0.00000  Uiso   1.00
C62    C     0.37580   0.84570   0.81370   0.00000  Uiso   1.00
C63    C     0.32100   0.88460   0.77410   0.00000  Uiso   1.00
H64    H     0.31500   0.89740   0.72330   0.00000  Uiso   1.00
C65    C     0.27360   0.90570   0.80830   0.00000  Uiso   1.00
H66    H     0.23860   0.93400   0.78300   0.00000  Uiso   1.00
C67    C     0.27940   0.88370   0.88130   0.00000  Uiso   1.00
C68    C     0.33090   0.84380   0.91840   0.00000  Uiso   1.00
H69    H     0.33380   0.82900   0.96670   0.00000  Uiso   1.00
C70    C     0.38100   0.82400   0.88460   0.00000  Uiso   1.00
H71    H     0.41730   0.79630   0.91050   0.00000  Uiso   1.00
C72    C     0.22960   0.90790   0.92020   0.00000  Uiso   1.00
C73    C     0.91960   0.90780   0.22880   0.00000  Uiso   1.00
C74    C     0.88190   0.88350   0.27970   0.00000  Uiso   1.00
C75    C     0.81040   0.90450   0.27350   0.00000  Uiso   1.00
H76    H     0.78570   0.93280   0.23820   0.00000  Uiso   1.00
C77    C     0.77330   0.88410   0.31990   0.00000  Uiso   1.00
H78    H     0.72210   0.89710   0.31260   0.00000  Uiso   1.00
C79    C     0.81270   0.84570   0.37470   0.00000  Uiso   1.00
C80    C     0.88450   0.82420   0.38230   0.00000  Uiso   1.00
H81    H     0.91110   0.79740   0.42040   0.00000  Uiso   1.00
C82    C     0.91930   0.84340   0.33080   0.00000  Uiso   1.00
H83    H     0.96700   0.82810   0.33310   0.00000  Uiso   1.00
C84    C     0.81410   0.86730   0.52300   0.00000  Uiso   1.00
C85    C     0.77410   0.91030   0.52650   0.00000  Uiso   1.00
H86    H     0.71900   0.91690   0.48450   0.00000  Uiso   1.00
C87    C     0.81600   0.94510   0.59410   0.00000  Uiso   1.00
H88    H     0.78790   0.97510   0.59510   0.00000  Uiso   1.00
C89    C     0.89650   0.93670   0.65870   0.00000  Uiso   1.00
C90    C     0.94010   0.89200   0.65780   0.00000  Uiso   1.00
H91    H     0.99470   0.88490   0.70060   0.00000  Uiso   1.00
C92    C     0.89500   0.85730   0.58600   0.00000  Uiso   1.00
H93    H     0.92180   0.82730   0.58290   0.00000  Uiso   1.00
C94    C     0.94010   0.97430   0.73210   0.00000  Uiso   1.00
Mn95   Mn    0.57310   0.58314   0.69842   0.00000  Uiso   1.00
Mn96   Mn    0.60663   0.50004   0.39318   0.00000  Uiso   1.00
Mn97   Mn    0.69826   0.58320   0.57292   0.00000  Uiso   1.00
S98    S     0.96579   0.40386   0.96593   0.00000  Uiso   1.00
S99    S     0.06029   0.32377   0.72820   0.00000  Uiso   1.00
S100   S     0.72760   0.32386   0.05999   0.00000  Uiso   1.00
O101   O     0.58421   0.54786   0.47873   0.00000  Uiso   1.00
O102   O     0.47927   0.54811   0.58492   0.00000  Uiso   1.00
O103   O     0.60950   0.46758   0.60990   0.00000  Uiso   1.00
O104   O     0.87070   0.15311   0.94080   0.00000  Uiso   1.00
O105   O     0.26970   0.38629   0.51870   0.00000  Uiso   1.00
O106   O     0.77960   0.51703   0.59540   0.00000  Uiso   1.00
O107   O     0.80640   0.62280   0.67550   0.00000  Uiso   1.00
O108   O     0.66270   0.54624   0.66290   0.00000  Uiso   1.00
O109   O     0.94090   0.15322   0.87100   0.00000  Uiso   1.00
O110   O     0.51810   0.38561   0.26890   0.00000  Uiso   1.00
O111   O     0.59500   0.51695   0.77890   0.00000  Uiso   1.00
O112   O     0.67630   0.62281   0.80700   0.00000  Uiso   1.00
O113   O     0.30800   0.44820   0.61230   0.00000  Uiso   1.00
O114   O     0.61280   0.44830   0.30820   0.00000  Uiso   1.00
O115   O     0.70690   0.45812   0.49580   0.00000  Uiso   1.00
O116   O     0.49650   0.45819   0.70750   0.00000  Uiso   1.00
O117   O     0.95960   0.41909   0.03940   0.00000  Uiso   1.00
O118   O     0.03900   0.41918   0.96000   0.00000  Uiso   1.00
O119   O     0.10390   0.33130   0.81880   0.00000  Uiso   1.00
O120   O     0.02980   0.27321   0.69500   0.00000  Uiso   1.00
O121   O     0.81580   0.32970   0.10230   0.00000  Uiso   1.00
O122   O     0.69490   0.27263   0.03020   0.00000  Uiso   1.00
C123   C     0.66430   0.49622   0.66450   0.00000  Uiso   1.00
C124   C     0.73890   0.47305   0.73870   0.00000  Uiso   1.00
C125   C     0.80010   0.50270   0.80010   0.00000  Uiso   1.00
H126   H     0.79470   0.53850   0.79490   0.00000  Uiso   1.00
C127   C     0.86960   0.48249   0.86950   0.00000  Uiso   1.00
H128   H     0.91040   0.50380   0.91030   0.00000  Uiso   1.00
C129   C     0.87620   0.42861   0.87610   0.00000  Uiso   1.00
C130   C     0.81440   0.39773   0.81480   0.00000  Uiso   1.00
H131   H     0.81870   0.36190   0.81960   0.00000  Uiso   1.00
C132   C     0.74770   0.41975   0.74790   0.00000  Uiso   1.00
H133   H     0.70670   0.39860   0.70700   0.00000  Uiso   1.00
C134   C     0.95480   0.33693   0.95480   0.00000  Uiso   1.00
C135   C     0.98630   0.31048   0.90960   0.00000  Uiso   1.00
H136   H     0.01570   0.32820   0.88710   0.00000  Uiso   1.00
C137   C     0.97430   0.25839   0.89760   0.00000  Uiso   1.00
H138   H     0.99740   0.24080   0.86870   0.00000  Uiso   1.00
C139   C     0.92810   0.23137   0.92800   0.00000  Uiso   1.00
C140   C     0.89700   0.25818   0.97380   0.00000  Uiso   1.00
H141   H     0.86730   0.24050   0.99610   0.00000  Uiso   1.00
C142   C     0.90970   0.31079   0.98670   0.00000  Uiso   1.00
H143   H     0.88780   0.32850   0.01670   0.00000  Uiso   1.00
C144   C     0.91220   0.17495   0.91250   0.00000  Uiso   1.00
C145   C     0.76830   0.47360   0.56110   0.00000  Uiso   1.00
C146   C     0.84240   0.43700   0.60430   0.00000  Uiso   1.00
C147   C     0.90760   0.44560   0.68590   0.00000  Uiso   1.00
H148   H     0.90710   0.47560   0.71400   0.00000  Uiso   1.00
C149   C     0.97430   0.41030   0.72700   0.00000  Uiso   1.00
H150   H     0.01660   0.41670   0.78210   0.00000  Uiso   1.00
C151   C     0.97700   0.36700   0.68610   0.00000  Uiso   1.00
C152   C     0.91350   0.35700   0.60560   0.00000  Uiso   1.00
H153   H     0.91630   0.32700   0.57870   0.00000  Uiso   1.00
C154   C     0.84240   0.39150   0.56120   0.00000  Uiso   1.00
H155   H     0.79900   0.38410   0.50710   0.00000  Uiso   1.00
C156   C     0.12420   0.34570   0.68630   0.00000  Uiso   1.00
C157   C     0.17900   0.38460   0.72590   0.00000  Uiso   1.00
H158   H     0.18500   0.39740   0.77670   0.00000  Uiso   1.00
C159   C     0.22640   0.40570   0.69170   0.00000  Uiso   1.00
H160   H     0.26140   0.43400   0.71700   0.00000  Uiso   1.00
C161   C     0.22060   0.38370   0.61870   0.00000  Uiso   1.00
C162   C     0.16910   0.34380   0.58160   0.00000  Uiso   1.00
H163   H     0.16620   0.32900   0.53330   0.00000  Uiso   1.00
C164   C     0.11900   0.32400   0.61540   0.00000  Uiso   1.00
H165   H     0.08270   0.29630   0.58950   0.00000  Uiso   1.00
C166   C     0.27040   0.40790   0.57980   0.00000  Uiso   1.00
C167   C     0.58040   0.40780   0.27120   0.00000  Uiso   1.00
C168   C     0.61810   0.38350   0.22030   0.00000  Uiso   1.00
C169   C     0.68960   0.40450   0.22650   0.00000  Uiso   1.00
H170   H     0.71430   0.43280   0.26180   0.00000  Uiso   1.00
C171   C     0.72670   0.38410   0.18010   0.00000  Uiso   1.00
H172   H     0.77790   0.39710   0.18740   0.00000  Uiso   1.00
C173   C     0.68730   0.34570   0.12530   0.00000  Uiso   1.00
C174   C     0.61550   0.32420   0.11770   0.00000  Uiso   1.00
H175   H     0.58890   0.29740   0.07960   0.00000  Uiso   1.00
C176   C     0.58070   0.34340   0.16920   0.00000  Uiso   1.00
H177   H     0.53300   0.32810   0.16690   0.00000  Uiso   1.00
C178   C     0.68590   0.36730   0.97700   0.00000  Uiso   1.00
C179   C     0.72590   0.41030   0.97350   0.00000  Uiso   1.00
H180   H     0.78100   0.41690   0.01550   0.00000  Uiso   1.00
C181   C     0.68400   0.44510   0.90590   0.00000  Uiso   1.00
H182   H     0.71210   0.47510   0.90490   0.00000  Uiso   1.00
C183   C     0.60350   0.43670   0.84130   0.00000  Uiso   1.00
C184   C     0.55990   0.39200   0.84220   0.00000  Uiso   1.00
H185   H     0.50530   0.38490   0.79940   0.00000  Uiso   1.00
C186   C     0.60500   0.35730   0.91400   0.00000  Uiso   1.00
H187   H     0.57820   0.32730   0.91710   0.00000  Uiso   1.00
C188   C     0.55990   0.47430   0.76790   0.00000  Uiso   1.00
Mn189  Mn    0.07310   0.91686   0.19842   0.00000  Uiso   1.00
Mn190  Mn    0.10663   0.99996   0.89318   0.00000  Uiso   1.00
Mn191  Mn    0.19826   0.91680   0.07292   0.00000  Uiso   1.00
S192   S     0.46579   0.09614   0.46593   0.00000  Uiso   1.00
S193   S     0.56029   0.17623   0.22820   0.00000  Uiso   1.00
S194   S     0.22760   0.17614   0.55999   0.00000  Uiso   1.00
O195   O     0.08421   0.95214   0.97873   0.00000  Uiso   1.00
O196   O     0.97927   0.95189   0.08492   0.00000  Uiso   1.00
O197   O     0.10950   0.03242   0.10990   0.00000  Uiso   1.00
O198   O     0.37070   0.34689   0.44080   0.00000  Uiso   1.00
O199   O     0.76970   0.11371   0.01870   0.00000  Uiso   1.00
O200   O     0.27960   0.98297   0.09540   0.00000  Uiso   1.00
O201   O     0.30640   0.87720   0.17550   0.00000  Uiso   1.00
O202   O     0.16270   0.95376   0.16290   0.00000  Uiso   1.00
O203   O     0.44090   0.34678   0.37100   0.00000  Uiso   1.00
O204   O     0.01810   0.11439   0.76890   0.00000  Uiso   1.00
O205   O     0.09500   0.98305   0.27890   0.00000  Uiso   1.00
O206   O     0.17630   0.87719   0.30700   0.00000  Uiso   1.00
O207   O     0.80800   0.05180   0.11230   0.00000  Uiso   1.00
O208   O     0.11280   0.05170   0.80820   0.00000  Uiso   1.00
O209   O     0.20690   0.04188   0.99580   0.00000  Uiso   1.00
O210   O     0.99650   0.04181   0.20750   0.00000  Uiso   1.00
O211   O     0.45960   0.08091   0.53940   0.00000  Uiso   1.00
O212   O     0.53900   0.08082   0.46000   0.00000  Uiso   1.00
O213   O     0.60390   0.16870   0.31880   0.00000  Uiso   1.00
O214   O     0.52980   0.22679   0.19500   0.00000  Uiso   1.00
O215   O     0.31580   0.17030   0.60230   0.00000  Uiso   1.00
O216   O     0.19490   0.22737   0.53020   0.00000  Uiso   1.00
C217   C     0.16430   0.00378   0.16450   0.00000  Uiso   1.00
C218   C     0.23890   0.02695   0.23870   0.00000  Uiso   1.00
C219   C     0.30010   0.99730   0.30010   0.00000  Uiso   1.00
H220   H     0.29470   0.96150   0.29490   0.00000  Uiso   1.00
C221   C     0.36960   0.01751   0.36950   0.00000  Uiso   1.00
H222   H     0.41040   0.99620   0.41030   0.00000  Uiso   1.00
C223   C     0.37620   0.07139   0.37610   0.00000  Uiso   1.00
C224   C     0.31440   0.10227   0.31480   0.00000  Uiso   1.00
H225   H     0.31870   0.13810   0.31960   0.00000  Uiso   1.00
C226   C     0.24770   0.08025   0.24790   0.00000  Uiso   1.00
H227   H     0.20670   0.10140   0.20700   0.00000  Uiso   1.00
C228   C     0.45480   0.16307   0.45480   0.00000  Uiso   1.00
C229   C     0.48630   0.18952   0.40960   0.00000  Uiso   1.00
H230   H     0.51570   0.17180   0.38710   0.00000  Uiso   1.00
C231   C     0.47430   0.24161   0.39760   0.00000  Uiso   1.00
H232   H     0.49740   0.25920   0.36870   0.00000  Uiso   1.00
C233   C     0.42810   0.26863   0.42800   0.00000  Uiso   1.00
C234   C     0.39700   0.24182   0.47380   0.00000  Uiso   1.00
H235   H     0.36730   0.25950   0.49610   0.00000  Uiso   1.00
C236   C     0.40970   0.18921   0.48670   0.00000  Uiso   1.00
H237   H     0.38780   0.17150   0.51670   0.00000  Uiso   1.00
C238   C     0.41220   0.32505   0.41250   0.00000  Uiso   1.00
C239   C     0.26830   0.02640   0.06110   0.00000  Uiso   1.00
C240   C     0.34240   0.06300   0.10430   0.00000  Uiso   1.00
C241   C     0.40760   0.05440   0.18590   0.00000  Uiso   1.00
H242   H     0.40710   0.02440   0.21400   0.00000  Uiso   1.00
C243   C     0.47430   0.08970   0.22700   0.00000  Uiso   1.00
H244   H     0.51660   0.08330   0.28210   0.00000  Uiso   1.00
C245   C     0.47700   0.13300   0.18610   0.00000  Uiso   1.00
C246   C     0.41350   0.14300   0.10560   0.00000  Uiso   1.00
H247   H     0.41630   0.17300   0.07870   0.00000  Uiso   1.00
C248   C     0.34240   0.10850   0.06120   0.00000  Uiso   1.00
H249   H     0.29900   0.11590   0.00710   0.00000  Uiso   1.00
C250   C     0.62420   0.15430   0.18630   0.00000  Uiso   1.00
C251   C     0.67900   0.11540   0.22590   0.00000  Uiso   1.00
H252   H     0.68500   0.10260   0.27670   0.00000  Uiso   1.00
C253   C     0.72640   0.09430   0.19170   0.00000  Uiso   1.00
H254   H     0.76140   0.06600   0.21700   0.00000  Uiso   1.00
C255   C     0.72060   0.11630   0.11870   0.00000  Uiso   1.00
C256   C     0.66910   0.15620   0.08160   0.00000  Uiso   1.00
H257   H     0.66620   0.17100   0.03330   0.00000  Uiso   1.00
C258   C     0.61900   0.17600   0.11540   0.00000  Uiso   1.00
H259   H     0.58270   0.20370   0.08950   0.00000  Uiso   1.00
C260   C     0.77040   0.09210   0.07980   0.00000  Uiso   1.00
C261   C     0.08040   0.09220   0.77120   0.00000  Uiso   1.00
C262   C     0.11810   0.11650   0.72030   0.00000  Uiso   1.00
C263   C     0.18960   0.09550   0.72650   0.00000  Uiso   1.00
H264   H     0.21430   0.06720   0.76180   0.00000  Uiso   1.00
C265   C     0.22670   0.11590   0.68010   0.00000  Uiso   1.00
H266   H     0.27790   0.10290   0.68740   0.00000  Uiso   1.00
C267   C     0.18730   0.15430   0.62530   0.00000  Uiso   1.00
C268   C     0.11550   0.17580   0.61770   0.00000  Uiso   1.00
H269   H     0.08890   0.20260   0.57960   0.00000  Uiso   1.00
C270   C     0.08070   0.15660   0.66920   0.00000  Uiso   1.00
H271   H     0.03300   0.17190   0.66690   0.00000  Uiso   1.00
C272   C     0.18590   0.13270   0.47700   0.00000  Uiso   1.00
C273   C     0.22590   0.08970   0.47350   0.00000  Uiso   1.00
H274   H     0.28100   0.08310   0.51550   0.00000  Uiso   1.00
C275   C     0.18400   0.05490   0.40590   0.00000  Uiso   1.00
H276   H     0.21210   0.02490   0.40490   0.00000  Uiso   1.00
C277   C     0.10350   0.06330   0.34130   0.00000  Uiso   1.00
C278   C     0.05990   0.10800   0.34220   0.00000  Uiso   1.00
H279   H     0.00530   0.11510   0.29940   0.00000  Uiso   1.00
C280   C     0.10500   0.14270   0.41400   0.00000  Uiso   1.00
H281   H     0.07820   0.17270   0.41710   0.00000  Uiso   1.00
C282   C     0.05990   0.02570   0.26790   0.00000  Uiso   1.00
Mn283  Mn    0.42690   0.41686   0.30158   0.00000  Uiso   1.00
Mn284  Mn    0.39337   0.49996   0.60682   0.00000  Uiso   1.00
Mn285  Mn    0.30174   0.41680   0.42708   0.00000  Uiso   1.00
S286   S     0.03421   0.59614   0.03407   0.00000  Uiso   1.00
S287   S     0.93971   0.67623   0.27180   0.00000  Uiso   1.00
S288   S     0.27240   0.67614   0.94001   0.00000  Uiso   1.00
O289   O     0.41579   0.45214   0.52127   0.00000  Uiso   1.00
O290   O     0.52073   0.45189   0.41508   0.00000  Uiso   1.00
O291   O     0.39050   0.53242   0.39010   0.00000  Uiso   1.00
O292   O     0.12930   0.84689   0.05920   0.00000  Uiso   1.00
O293   O     0.73030   0.61371   0.48130   0.00000  Uiso   1.00
O294   O     0.22040   0.48297   0.40460   0.00000  Uiso   1.00
O295   O     0.19360   0.37720   0.32450   0.00000  Uiso   1.00
O296   O     0.33730   0.45376   0.33710   0.00000  Uiso   1.00
O297   O     0.05910   0.84678   0.12900   0.00000  Uiso   1.00
O298   O     0.48190   0.61439   0.73110   0.00000  Uiso   1.00
O299   O     0.40500   0.48305   0.22110   0.00000  Uiso   1.00
O300   O     0.32370   0.37719   0.19300   0.00000  Uiso   1.00
O301   O     0.69200   0.55180   0.38770   0.00000  Uiso   1.00
O302   O     0.38720   0.55170   0.69180   0.00000  Uiso   1.00
O303   O     0.29310   0.54188   0.50420   0.00000  Uiso   1.00
O304   O     0.50350   0.54181   0.29250   0.00000  Uiso   1.00
O305   O     0.04040   0.58091   0.96060   0.00000  Uiso   1.00
O306   O     0.96100   0.58082   0.04000   0.00000  Uiso   1.00
O307   O     0.89610   0.66870   0.18120   0.00000  Uiso   1.00
O308   O     0.97020   0.72679   0.30500   0.00000  Uiso   1.00
O309   O     0.18420   0.67030   0.89770   0.00000  Uiso   1.00
O310   O     0.30510   0.72737   0.96980   0.00000  Uiso   1.00
C311   C     0.33570   0.50378   0.33550   0.00000  Uiso   1.00
C312   C     0.26110   0.52695   0.26130   0.00000  Uiso   1.00
C313   C     0.19990   0.49730   0.19990   0.00000  Uiso   1.00
H314   H     0.20530   0.46150   0.20510   0.00000  Uiso   1.00
C315   C     0.13040   0.51751   0.13050   0.00000  Uiso   1.00
H316   H     0.08960   0.49620   0.08970   0.00000  Uiso   1.00
C317   C     0.12380   0.57139   0.12390   0.00000  Uiso   1.00
C318   C     0.18560   0.60227   0.18520   0.00000  Uiso   1.00
H319   H     0.18130   0.63810   0.18040   0.00000  Uiso   1.00
C320   C     0.25230   0.58025   0.25210   0.00000  Uiso   1.00
H321   H     0.29330   0.60140   0.29300   0.00000  Uiso   1.00
C322   C     0.04520   0.66307   0.04520   0.00000  Uiso   1.00
C323   C     0.01370   0.68952   0.09040   0.00000  Uiso   1.00
H324   H     0.98430   0.67180   0.11290   0.00000  Uiso   1.00
C325   C     0.02570   0.74161   0.10240   0.00000  Uiso   1.00
H326   H     0.00260   0.75920   0.13130   0.00000  Uiso   1.00
C327   C     0.07190   0.76863   0.07200   0.00000  Uiso   1.00
C328   C     0.10300   0.74182   0.02620   0.00000  Uiso   1.00
H329   H     0.13270   0.75950   0.00390   0.00000  Uiso   1.00
C330   C     0.09030   0.68921   0.01330   0.00000  Uiso   1.00
H331   H     0.11220   0.67150   0.98330   0.00000  Uiso   1.00
C332   C     0.08780   0.82505   0.08750   0.00000  Uiso   1.00
C333   C     0.23170   0.52640   0.43890   0.00000  Uiso   1.00
C334   C     0.15760   0.56300   0.39570   0.00000  Uiso   1.00
C335   C     0.09240   0.55440   0.31410   0.00000  Uiso   1.00
H336   H     0.09290   0.52440   0.28600   0.00000  Uiso   1.00
C337   C     0.02570   0.58970   0.27300   0.00000  Uiso   1.00
H338   H     0.98340   0.58330   0.21790   0.00000  Uiso   1.00
C339   C     0.02300   0.63300   0.31390   0.00000  Uiso   1.00
C340   C     0.08650   0.64300   0.39440   0.00000  Uiso   1.00
H341   H     0.08370   0.67300   0.42130   0.00000  Uiso   1.00
C342   C     0.15760   0.60850   0.43880   0.00000  Uiso   1.00
H343   H     0.20100   0.61590   0.49290   0.00000  Uiso   1.00
C344   C     0.87580   0.65430   0.31370   0.00000  Uiso   1.00
C345   C     0.82100   0.61540   0.27410   0.00000  Uiso   1.00
H346   H     0.81500   0.60260   0.22330   0.00000  Uiso   1.00
C347   C     0.77360   0.59430   0.30830   0.00000  Uiso   1.00
H348   H     0.73860   0.56600   0.28300   0.00000  Uiso   1.00
C349   C     0.77940   0.61630   0.38130   0.00000  Uiso   1.00
C350   C     0.83090   0.65620   0.41840   0.00000  Uiso   1.00
H351   H     0.83380   0.67100   0.46670   0.00000  Uiso   1.00
C352   C     0.88100   0.67600   0.38460   0.00000  Uiso   1.00
H353   H     0.91730   0.70370   0.41050   0.00000  Uiso   1.00
C354   C     0.72960   0.59210   0.42020   0.00000  Uiso   1.00
C355   C     0.41960   0.59220   0.72880   0.00000  Uiso   1.00
C356   C     0.38190   0.61650   0.77970   0.00000  Uiso   1.00
C357   C     0.31040   0.59550   0.77350   0.00000  Uiso   1.00
H358   H     0.28570   0.56720   0.73820   0.00000  Uiso   1.00
C359   C     0.27330   0.61590   0.81990   0.00000  Uiso   1.00
H360   H     0.22210   0.60290   0.81260   0.00000  Uiso   1.00
C361   C     0.31270   0.65430   0.87470   0.00000  Uiso   1.00
C362   C     0.38450   0.67580   0.88230   0.00000  Uiso   1.00
H363   H     0.41110   0.70260   0.92040   0.00000  Uiso   1.00
C364   C     0.41930   0.65660   0.83080   0.00000  Uiso   1.00
H365   H     0.46700   0.67190   0.83310   0.00000  Uiso   1.00
C366   C     0.31410   0.63270   0.02300   0.00000  Uiso   1.00
C367   C     0.27410   0.58970   0.02650   0.00000  Uiso   1.00
H368   H     0.21900   0.58310   0.98450   0.00000  Uiso   1.00
C369   C     0.31600   0.55490   0.09410   0.00000  Uiso   1.00
H370   H     0.28790   0.52490   0.09510   0.00000  Uiso   1.00
C371   C     0.39650   0.56330   0.15870   0.00000  Uiso   1.00
C372   C     0.44010   0.60800   0.15780   0.00000  Uiso   1.00
H373   H     0.49470   0.61510   0.20060   0.00000  Uiso   1.00
C374   C     0.39500   0.64270   0.08600   0.00000  Uiso   1.00
H375   H     0.42180   0.67270   0.08290   0.00000  Uiso   1.00
C376   C     0.44010   0.52570   0.23210   0.00000  Uiso   1.00
Mn377  Mn    0.00000   0.00000   0.00000   0.00000  Uiso   1.00
Mn378  Mn    0.50000   0.50000   0.50000   0.00000  Uiso   1.00
loop_
_geom_bond_atom_site_label_1
_geom_bond_atom_site_label_2
_geom_bond_distance
_geom_bond_site_symmetry_2
_ccdc_geom_bond_type
Mn1    O8      2.130   1_655 S
Mn1    O14     2.221   .     S
Mn1    O18     2.200   .     S
Mn1    O109    2.148   .     S
Mn1    O204    2.155   1_655 S
Mn1    O17     2.155   .     S
Mn2    O7      2.164   .     S
Mn2    O20     2.079   1_545 S
Mn2    O21     2.155   1_545 S
Mn2    O207    2.078   .     S
Mn2    O210    2.161   .     S
Mn2    O196    2.168   1_545 S
Mn3    O7      2.141   1_556 S
Mn3    O12     2.161   .     S
Mn3    O13     2.190   .     S
Mn3    O199    2.149   1_556 S
Mn3    O104    2.140   .     S
Mn3    O14     2.230   .     S
S4     O23     1.439   .     S
S4     O24     1.431   .     S
S4     C35     1.767   .     S
S4     C40     1.743   .     S
S5     O25     1.446   .     S
S5     O26     1.433   .     S
S5     C57     1.727   .     S
S5     C62     1.751   .     S
S6     O27     1.401   .     S
S6     O28     1.445   .     S
S6     C79     1.751   .     S
S6     C84     1.728   .     S
O7     Mn377   2.133   1_655 S
O7     Mn3     2.141   1_554 S
O8     Mn1     2.130   1_455 S
O8     Mn377   2.143   1_556 S
O8     Mn190   2.168   1_545 S
O9     Mn377   2.181   1_666 S
O9     C29     1.248   .     S
O10    C50     1.229   .     S
O10    Mn97    2.140   .     S
O11    C72     1.232   .     S
O11    Mn191   2.149   1_556 S
O12    C51     1.251   1_545 S
O14    C29     1.294   1_545 S
O15    C50     1.233   .     S
O15    Mn95    2.148   .     S
O16    C73     1.244   .     S
O16    Mn189   2.155   1_655 S
O17    C94     1.239   1_545 S
O19    C72     1.228   .     S
O19    Mn190   2.078   .     S
O20    Mn2     2.079   1_565 S
O20    C73     1.228   .     S
O21    Mn2     2.155   1_565 S
O21    C51     1.231   1_554 S
O22    C94     1.211   1_455 S
O22    Mn190   2.161   .     S
C29    C30     1.491   .     S
C29    O14     1.294   1_565 S
C30    C31     1.362   1_565 S
C30    C38     1.389   .     S
C31    C30     1.362   1_545 S
C31    H32     0.931   .     S
C31    C33     1.378   1_545 S
C33    C31     1.378   1_565 S
C33    H34     0.930   1_565 S
C33    C35     1.399   .     S
H34    C33     0.930   1_545 S
C35    C36     1.384   .     S
C36    H37     0.931   .     S
C36    C38     1.352   .     S
C38    H39     0.930   .     S
C40    C41     1.380   .     S
C40    C48     1.379   .     S
C41    H42     0.930   .     S
C41    C43     1.365   .     S
C43    H44     0.929   .     S
C43    C45     1.388   .     S
C45    C46     1.388   .     S
C45    C50     1.488   .     S
C46    H47     0.931   .     S
C46    C48     1.381   .     S
C48    H49     0.931   .     S
C51    O12     1.251   1_565 S
C51    C52     1.511   .     S
C51    O21     1.231   1_556 S
C52    C53     1.390   .     S
C52    C60     1.411   .     S
C53    H54     0.930   .     S
C53    C55     1.404   .     S
C55    H56     0.931   .     S
C55    C57     1.355   .     S
C57    C58     1.373   .     S
C58    H59     0.930   .     S
C58    C60     1.446   .     S
C60    H61     0.930   .     S
C62    C63     1.348   .     S
C62    C70     1.359   .     S
C63    H64     0.931   .     S
C63    C65     1.386   .     S
C65    H66     0.930   .     S
C65    C67     1.393   .     S
C67    C68     1.333   .     S
C67    C72     1.517   .     S
C68    H69     0.931   .     S
C68    C70     1.408   .     S
C70    H71     0.930   .     S
C73    C74     1.518   .     S
C74    C75     1.353   .     S
C74    C82     1.335   .     S
C75    H76     0.931   .     S
C75    C77     1.403   .     S
C77    H78     0.930   .     S
C77    C79     1.339   .     S
C79    C80     1.354   .     S
C80    H81     0.930   .     S
C80    C82     1.438   .     S
C82    H83     0.929   .     S
C84    C85     1.344   .     S
C84    C92     1.374   .     S
C85    H86     0.930   .     S
C85    C87     1.408   .     S
C87    H88     0.932   .     S
C87    C89     1.371   .     S
C89    C90     1.403   .     S
C89    C94     1.522   .     S
C90    H91     0.931   .     S
C90    C92     1.460   .     S
C92    H93     0.930   .     S
C94    O17     1.239   1_565 S
C94    O22     1.211   1_655 S
Mn95   O102    2.130   .     S
Mn95   O108    2.221   .     S
Mn95   O112    2.200   .     S
Mn95   O298    2.155   .     S
Mn95   O111    2.155   .     S
Mn96   O101    2.164   .     S
Mn96   O114    2.079   .     S
Mn96   O115    2.155   .     S
Mn96   O301    2.078   .     S
Mn96   O304    2.161   .     S
Mn96   O290    2.168   .     S
Mn97   O101    2.141   .     S
Mn97   O106    2.161   .     S
Mn97   O107    2.190   .     S
Mn97   O293    2.149   .     S
Mn97   O108    2.230   .     S
S98    O117    1.439   1_556 S
S98    O118    1.431   1_655 S
S98    C129    1.767   .     S
S98    C134    1.743   .     S
S99    O119    1.446   .     S
S99    O120    1.433   .     S
S99    C151    1.727   1_455 S
S99    C156    1.751   .     S
S100   O121    1.401   .     S
S100   O122    1.445   .     S
S100   C173    1.751   .     S
S100   C178    1.728   1_554 S
O101   Mn378   2.133   .     S
O102   Mn378   2.143   .     S
O102   Mn284   2.168   .     S
O103   Mn378   2.181   .     S
O103   C123    1.248   .     S
O104   C144    1.229   .     S
O105   C166    1.232   .     S
O105   Mn285   2.149   .     S
O106   C145    1.251   .     S
O108   C123    1.294   .     S
O109   C144    1.233   .     S
O110   C167    1.244   .     S
O110   Mn283   2.155   .     S
O111   C188    1.239   .     S
O113   C166    1.228   .     S
O113   Mn284   2.078   .     S
O114   C167    1.228   .     S
O115   C145    1.231   .     S
O116   C188    1.211   .     S
O116   Mn284   2.161   .     S
O117   S98     1.439   1_554 S
O118   S98     1.431   1_455 S
C123   C124    1.491   .     S
C124   C125    1.362   .     S
C124   C132    1.389   .     S
C125   H126    0.931   .     S
C125   C127    1.378   .     S
C127   H128    0.930   .     S
C127   C129    1.399   .     S
C129   C130    1.384   .     S
C130   H131    0.931   .     S
C130   C132    1.352   .     S
C132   H133    0.930   .     S
C134   C135    1.380   .     S
C134   C142    1.379   .     S
C135   H136    0.930   1_655 S
C135   C137    1.365   .     S
H136   C135    0.930   1_455 S
C137   H138    0.929   .     S
C137   C139    1.388   .     S
C139   C140    1.388   .     S
C139   C144    1.488   .     S
C140   H141    0.931   .     S
C140   C142    1.381   .     S
C142   H143    0.931   1_556 S
H143   C142    0.931   1_554 S
C145   C146    1.511   .     S
C146   C147    1.390   .     S
C146   C154    1.411   .     S
C147   H148    0.930   .     S
C147   C149    1.404   .     S
C149   H150    0.931   1_655 S
C149   C151    1.355   .     S
H150   C149    0.931   1_455 S
C151   S99     1.727   1_655 S
C151   C152    1.373   .     S
C152   H153    0.930   .     S
C152   C154    1.446   .     S
C154   H155    0.930   .     S
C156   C157    1.348   .     S
C156   C164    1.359   .     S
C157   H158    0.931   .     S
C157   C159    1.386   .     S
C159   H160    0.930   .     S
C159   C161    1.393   .     S
C161   C162    1.333   .     S
C161   C166    1.517   .     S
C162   H163    0.931   .     S
C162   C164    1.408   .     S
C164   H165    0.930   .     S
C167   C168    1.518   .     S
C168   C169    1.353   .     S
C168   C176    1.335   .     S
C169   H170    0.931   .     S
C169   C171    1.403   .     S
C171   H172    0.930   .     S
C171   C173    1.339   .     S
C173   C174    1.354   .     S
C174   H175    0.930   .     S
C174   C176    1.438   .     S
C176   H177    0.929   .     S
C178   S100    1.728   1_556 S
C178   C179    1.344   .     S
C178   C186    1.374   .     S
C179   H180    0.930   1_556 S
C179   C181    1.408   .     S
H180   C179    0.930   1_554 S
C181   H182    0.932   .     S
C181   C183    1.371   .     S
C183   C184    1.403   .     S
C183   C188    1.522   .     S
C184   H185    0.931   .     S
C184   C186    1.460   .     S
C186   H187    0.930   .     S
Mn189  O196    2.130   1_455 S
Mn189  O202    2.221   .     S
Mn189  O206    2.200   .     S
Mn189  O297    2.148   .     S
Mn189  O16     2.155   1_455 S
Mn189  O205    2.155   .     S
Mn190  O195    2.164   .     S
Mn190  O208    2.079   1_565 S
Mn190  O209    2.155   1_565 S
Mn190  O8      2.168   1_565 S
Mn191  O195    2.141   1_554 S
Mn191  O200    2.161   .     S
Mn191  O201    2.190   .     S
Mn191  O11     2.149   1_554 S
Mn191  O292    2.140   .     S
Mn191  O202    2.230   .     S
S192   O211    1.439   .     S
S192   O212    1.431   .     S
S192   C223    1.767   .     S
S192   C228    1.743   .     S
S193   O213    1.446   .     S
S193   O214    1.433   .     S
S193   C245    1.727   .     S
S193   C250    1.751   .     S
S194   O215    1.401   .     S
S194   O216    1.445   .     S
S194   C267    1.751   .     S
S194   C272    1.728   .     S
O195   Mn377   2.133   1_566 S
O195   Mn191   2.141   1_556 S
O196   Mn189   2.130   1_655 S
O196   Mn377   2.143   1_665 S
O196   Mn2     2.168   1_565 S
O197   Mn377   2.181   .     S
O197   C217    1.248   .     S
O198   C238    1.229   .     S
O198   Mn285   2.140   .     S
O199   C260    1.232   .     S
O199   Mn3     2.149   1_554 S
O200   C239    1.251   1_565 S
O202   C217    1.294   1_565 S
O203   C238    1.233   .     S
O203   Mn283   2.148   .     S
O204   C261    1.244   .     S
O204   Mn1     2.155   1_455 S
O205   C282    1.239   1_565 S
O207   C260    1.228   .     S
O208   Mn190   2.079   1_545 S
O208   C261    1.228   .     S
O209   Mn190   2.155   1_545 S
O209   C239    1.231   1_556 S
O210   C282    1.211   1_655 S
C217   C218    1.491   .     S
C217   O202    1.294   1_545 S
C218   C219    1.362   1_545 S
C218   C226    1.389   .     S
C219   C218    1.362   1_565 S
C219   H220    0.931   .     S
C219   C221    1.378   1_565 S
C221   C219    1.378   1_545 S
C221   H222    0.930   1_545 S
C221   C223    1.399   .     S
H222   C221    0.930   1_565 S
C223   C224    1.384   .     S
C224   H225    0.931   .     S
C224   C226    1.352   .     S
C226   H227    0.930   .     S
C228   C229    1.380   .     S
C228   C236    1.379   .     S
C229   H230    0.930   .     S
C229   C231    1.365   .     S
C231   H232    0.929   .     S
C231   C233    1.388   .     S
C233   C234    1.388   .     S
C233   C238    1.488   .     S
C234   H235    0.931   .     S
C234   C236    1.381   .     S
C236   H237    0.931   .     S
C239   O200    1.251   1_545 S
C239   C240    1.511   .     S
C239   O209    1.231   1_554 S
C240   C241    1.390   .     S
C240   C248    1.411   .     S
C241   H242    0.930   .     S
C241   C243    1.404   .     S
C243   H244    0.931   .     S
C243   C245    1.355   .     S
C245   C246    1.373   .     S
C246   H247    0.930   .     S
C246   C248    1.446   .     S
C248   H249    0.930   .     S
C250   C251    1.348   .     S
C250   C258    1.359   .     S
C251   H252    0.931   .     S
C251   C253    1.386   .     S
C253   H254    0.930   .     S
C253   C255    1.393   .     S
C255   C256    1.333   .     S
C255   C260    1.517   .     S
C256   H257    0.931   .     S
C256   C258    1.408   .     S
C258   H259    0.930   .     S
C261   C262    1.518   .     S
C262   C263    1.353   .     S
C262   C270    1.335   .     S
C263   H264    0.931   .     S
C263   C265    1.403   .     S
C265   H266    0.930   .     S
C265   C267    1.339   .     S
C267   C268    1.354   .     S
C268   H269    0.930   .     S
C268   C270    1.438   .     S
C270   H271    0.929   .     S
C272   C273    1.344   .     S
C272   C280    1.374   .     S
C273   H274    0.930   .     S
C273   C275    1.408   .     S
C275   H276    0.932   .     S
C275   C277    1.371   .     S
C277   C278    1.403   .     S
C277   C282    1.522   .     S
C278   H279    0.931   .     S
C278   C280    1.460   .     S
C280   H281    0.930   .     S
C282   O205    1.239   1_545 S
C282   O210    1.211   1_455 S
Mn283  O290    2.130   .     S
Mn283  O296    2.221   .     S
Mn283  O300    2.200   .     S
Mn283  O299    2.155   .     S
Mn284  O289    2.164   .     S
Mn284  O302    2.079   .     S
Mn284  O303    2.155   .     S
Mn285  O289    2.141   .     S
Mn285  O294    2.161   .     S
Mn285  O295    2.190   .     S
Mn285  O296    2.230   .     S
S286   O305    1.439   1_554 S
S286   O306    1.431   1_455 S
S286   C317    1.767   .     S
S286   C322    1.743   .     S
S287   O307    1.446   .     S
S287   O308    1.433   .     S
S287   C339    1.727   1_655 S
S287   C344    1.751   .     S
S288   O309    1.401   .     S
S288   O310    1.445   .     S
S288   C361    1.751   .     S
S288   C366    1.728   1_556 S
O289   Mn378   2.133   .     S
O290   Mn378   2.143   .     S
O291   Mn378   2.181   .     S
O291   C311    1.248   .     S
O292   C332    1.229   .     S
O293   C354    1.232   .     S
O294   C333    1.251   .     S
O296   C311    1.294   .     S
O297   C332    1.233   .     S
O298   C355    1.244   .     S
O299   C376    1.239   .     S
O301   C354    1.228   .     S
O302   C355    1.228   .     S
O303   C333    1.231   .     S
O304   C376    1.211   .     S
O305   S286    1.439   1_556 S
O306   S286    1.431   1_655 S
C311   C312    1.491   .     S
C312   C313    1.362   .     S
C312   C320    1.389   .     S
C313   H314    0.931   .     S
C313   C315    1.378   .     S
C315   H316    0.930   .     S
C315   C317    1.399   .     S
C317   C318    1.384   .     S
C318   H319    0.931   .     S
C318   C320    1.352   .     S
C320   H321    0.930   .     S
C322   C323    1.380   .     S
C322   C330    1.379   .     S
C323   H324    0.930   1_455 S
C323   C325    1.365   .     S
H324   C323    0.930   1_655 S
C325   H326    0.929   .     S
C325   C327    1.388   .     S
C327   C328    1.388   .     S
C327   C332    1.488   .     S
C328   H329    0.931   .     S
C328   C330    1.381   .     S
C330   H331    0.931   1_554 S
H331   C330    0.931   1_556 S
C333   C334    1.511   .     S
C334   C335    1.390   .     S
C334   C342    1.411   .     S
C335   H336    0.930   .     S
C335   C337    1.404   .     S
C337   H338    0.931   1_455 S
C337   C339    1.355   .     S
H338   C337    0.931   1_655 S
C339   S287    1.727   1_455 S
C339   C340    1.373   .     S
C340   H341    0.930   .     S
C340   C342    1.446   .     S
C342   H343    0.930   .     S
C344   C345    1.348   .     S
C344   C352    1.359   .     S
C345   H346    0.931   .     S
C345   C347    1.386   .     S
C347   H348    0.930   .     S
C347   C349    1.393   .     S
C349   C350    1.333   .     S
C349   C354    1.517   .     S
C350   H351    0.931   .     S
C350   C352    1.408   .     S
C352   H353    0.930   .     S
C355   C356    1.518   .     S
C356   C357    1.353   .     S
C356   C364    1.335   .     S
C357   H358    0.931   .     S
C357   C359    1.403   .     S
C359   H360    0.930   .     S
C359   C361    1.339   .     S
C361   C362    1.354   .     S
C362   H363    0.930   .     S
C362   C364    1.438   .     S
C364   H365    0.929   .     S
C366   S288    1.728   1_554 S
C366   C367    1.344   .     S
C366   C374    1.374   .     S
C367   H368    0.930   1_554 S
C367   C369    1.408   .     S
H368   C367    0.930   1_556 S
C369   H370    0.932   .     S
C369   C371    1.371   .     S
C371   C372    1.403   .     S
C371   C376    1.522   .     S
C372   H373    0.931   .     S
C372   C374    1.460   .     S
C374   H375    0.930   .     S
Mn377  O7      2.133   1_455 S
Mn377  O195    2.133   1_544 S
Mn377  O8      2.143   1_554 S
Mn377  O196    2.143   1_445 S
Mn377  O9      2.181   1_444 S
