data_XOJQOF_direct
_audit_creation_date              2024-06-11
_audit_creation_method            'Materials Studio'
_symmetry_space_group_name_H-M    'P1'
_symmetry_Int_Tables_number       1
_symmetry_cell_setting            triclinic
loop_
_symmetry_equiv_pos_as_xyz
  x,y,z
_cell_length_a                    36.5584
_cell_length_b                    36.5584
_cell_length_c                    36.5584
_cell_angle_alpha                 90.0000
_cell_angle_beta                  90.0000
_cell_angle_gamma                 90.0000
loop_
_atom_site_label
_atom_site_type_symbol
_atom_site_fract_x
_atom_site_fract_y
_atom_site_fract_z
_atom_site_U_iso_or_equiv
_atom_site_adp_type
_atom_site_occupancy
O1     O     0.26309   0.25162   0.17052   0.00000  Uiso   1.00
O2     O     0.28799   0.20265   0.19767   0.00000  Uiso   1.00
C3     C     0.27720   0.21958   0.16912   0.00000  Uiso   1.00
C4     C     0.26503   0.21501   0.10111   0.00000  Uiso   1.00
H5     H     0.25283   0.24200   0.10133   0.00000  Uiso   1.00
C6     C     0.27991   0.20009   0.13331   0.00000  Uiso   1.00
C7     C     0.27636   0.09879   0.03240   0.00000  Uiso   1.00
H8     H     0.27572   0.08402   0.05802   0.00000  Uiso   1.00
H9     H     0.24060   0.34222   0.17721   0.00000  Uiso   1.00
C10    C     0.29538   0.16485   0.13161   0.00000  Uiso   1.00
H11    H     0.30736   0.15246   0.15570   0.00000  Uiso   1.00
C12    C     0.26484   0.19481   0.06839   0.00000  Uiso   1.00
H13    H     0.25263   0.20690   0.04426   0.00000  Uiso   1.00
C14    C     0.27924   0.15907   0.06706   0.00000  Uiso   1.00
C15    C     0.27797   0.13741   0.03231   0.00000  Uiso   1.00
C16    C     0.29512   0.14470   0.09904   0.00000  Uiso   1.00
H17    H     0.30768   0.11791   0.09905   0.00000  Uiso   1.00
C18    C     0.25370   0.01847   0.02514   0.00000  Uiso   1.00
H19    H     0.54512   0.46600   0.73517   0.00000  Uiso   1.00
O20    O     0.73914   0.74701   0.16829   0.00000  Uiso   1.00
O21    O     0.71241   0.79594   0.19372   0.00000  Uiso   1.00
C22    C     0.72470   0.77883   0.16588   0.00000  Uiso   1.00
C23    C     0.74086   0.78341   0.09864   0.00000  Uiso   1.00
H24    H     0.75395   0.75686   0.09983   0.00000  Uiso   1.00
C25    C     0.72347   0.79794   0.12977   0.00000  Uiso   1.00
C26    C     0.73154   0.89940   0.02986   0.00000  Uiso   1.00
H27    H     0.73056   0.91379   0.05568   0.00000  Uiso   1.00
H28    H     0.75198   0.65479   0.17608   0.00000  Uiso   1.00
C29    C     0.70689   0.83258   0.12685   0.00000  Uiso   1.00
H30    H     0.69292   0.84463   0.15003   0.00000  Uiso   1.00
C31    C     0.74255   0.80352   0.06589   0.00000  Uiso   1.00
H32    H     0.75676   0.79184   0.04267   0.00000  Uiso   1.00
C33    C     0.72719   0.83879   0.06350   0.00000  Uiso   1.00
C34    C     0.73042   0.86077   0.02908   0.00000  Uiso   1.00
C35    C     0.70864   0.85262   0.09427   0.00000  Uiso   1.00
H36    H     0.69522   0.87898   0.09332   0.00000  Uiso   1.00
C37    C     0.75278   0.98053   0.02443   0.00000  Uiso   1.00
H38    H     0.45200   0.53157   0.80879   0.00000  Uiso   1.00
O39    O     0.74233   0.25116   0.82347   0.00000  Uiso   1.00
O40    O     0.71742   0.20144   0.79801   0.00000  Uiso   1.00
C41    C     0.73020   0.21841   0.82564   0.00000  Uiso   1.00
C42    C     0.74541   0.21435   0.89330   0.00000  Uiso   1.00
H43    H     0.75650   0.24180   0.89269   0.00000  Uiso   1.00
C44    C     0.73088   0.19852   0.86134   0.00000  Uiso   1.00
C45    C     0.73426   0.09927   0.96393   0.00000  Uiso   1.00
H46    H     0.73734   0.08435   0.93856   0.00000  Uiso   1.00
H47    H     0.76893   0.33772   0.82009   0.00000  Uiso   1.00
C48    C     0.71667   0.16280   0.86356   0.00000  Uiso   1.00
H49    H     0.70491   0.14969   0.83974   0.00000  Uiso   1.00
C50    C     0.74589   0.19475   0.92645   0.00000  Uiso   1.00
H51    H     0.75744   0.20760   0.95052   0.00000  Uiso   1.00
C52    C     0.73211   0.15879   0.92840   0.00000  Uiso   1.00
C53    C     0.73256   0.13782   0.96361   0.00000  Uiso   1.00
C54    C     0.71712   0.14336   0.89648   0.00000  Uiso   1.00
H55    H     0.70501   0.11637   0.89684   0.00000  Uiso   1.00
C56    C     0.71468   0.01877   0.97035   0.00000  Uiso   1.00
H57    H     0.45357   0.46649   0.28159   0.00000  Uiso   1.00
O58    O     0.25430   0.74657   0.82438   0.00000  Uiso   1.00
O59    O     0.27884   0.79588   0.79786   0.00000  Uiso   1.00
C60    C     0.26641   0.77937   0.82590   0.00000  Uiso   1.00
C61    C     0.25256   0.78433   0.89379   0.00000  Uiso   1.00
H62    H     0.24122   0.75697   0.89369   0.00000  Uiso   1.00
C63    C     0.26642   0.79974   0.86134   0.00000  Uiso   1.00
C64    C     0.26816   0.89964   0.96381   0.00000  Uiso   1.00
H65    H     0.26536   0.91483   0.93858   0.00000  Uiso   1.00
H66    H     0.26547   0.65060   0.81186   0.00000  Uiso   1.00
C67    C     0.28099   0.83536   0.86290   0.00000  Uiso   1.00
H68    H     0.29229   0.84815   0.83869   0.00000  Uiso   1.00
C69    C     0.25321   0.80417   0.92679   0.00000  Uiso   1.00
H70    H     0.24226   0.79155   0.95125   0.00000  Uiso   1.00
C71    C     0.26747   0.83999   0.92815   0.00000  Uiso   1.00
C72    C     0.26844   0.86101   0.96336   0.00000  Uiso   1.00
C73    C     0.28166   0.85505   0.89569   0.00000  Uiso   1.00
H74    H     0.29410   0.88189   0.89549   0.00000  Uiso   1.00
C75    C     0.29128   0.97951   0.97121   0.00000  Uiso   1.00
H76    H     0.54587   0.53300   0.20777   0.00000  Uiso   1.00
O77    O     0.17095   0.26306   0.25088   0.00000  Uiso   1.00
O78    O     0.19802   0.28831   0.20203   0.00000  Uiso   1.00
C79    C     0.16950   0.27736   0.21892   0.00000  Uiso   1.00
C80    C     0.10140   0.26549   0.21452   0.00000  Uiso   1.00
H81    H     0.10163   0.25329   0.24151   0.00000  Uiso   1.00
C82    C     0.13366   0.28018   0.19951   0.00000  Uiso   1.00
C83    C     0.03256   0.27694   0.09848   0.00000  Uiso   1.00
H84    H     0.05818   0.27594   0.08374   0.00000  Uiso   1.00
H85    H     0.17752   0.24070   0.34142   0.00000  Uiso   1.00
C86    C     0.13195   0.29565   0.16426   0.00000  Uiso   1.00
H87    H     0.15608   0.30747   0.15179   0.00000  Uiso   1.00
C88    C     0.06862   0.26553   0.19443   0.00000  Uiso   1.00
H89    H     0.04444   0.25348   0.20659   0.00000  Uiso   1.00
C90    C     0.06728   0.27992   0.15869   0.00000  Uiso   1.00
C91    C     0.03249   0.27883   0.13708   0.00000  Uiso   1.00
C92    C     0.09932   0.29558   0.14422   0.00000  Uiso   1.00
H93    H     0.09933   0.30811   0.11741   0.00000  Uiso   1.00
C94    C     0.02516   0.25372   0.01836   0.00000  Uiso   1.00
H95    H     0.72824   0.54569   0.46725   0.00000  Uiso   1.00
O96    O     0.17187   0.74334   0.74476   0.00000  Uiso   1.00
O97    O     0.19755   0.72007   0.79514   0.00000  Uiso   1.00
C98    C     0.16987   0.73243   0.77793   0.00000  Uiso   1.00
C99    C     0.10276   0.75000   0.78269   0.00000  Uiso   1.00
H100   H     0.10367   0.76167   0.75548   0.00000  Uiso   1.00
C101   C     0.13427   0.73398   0.79802   0.00000  Uiso   1.00
C102   C     0.03264   0.73882   0.89824   0.00000  Uiso   1.00
H103   H     0.05826   0.73996   0.91300   0.00000  Uiso   1.00
H104   H     0.17443   0.76915   0.65915   0.00000  Uiso   1.00
C105   C     0.13167   0.71908   0.83342   0.00000  Uiso   1.00
H106   H     0.15508   0.70609   0.84610   0.00000  Uiso   1.00
C107   C     0.06975   0.75137   0.80253   0.00000  Uiso   1.00
H108   H     0.04609   0.76411   0.79008   0.00000  Uiso   1.00
C109   C     0.06746   0.73697   0.83824   0.00000  Uiso   1.00
C110   C     0.03245   0.73858   0.85962   0.00000  Uiso   1.00
C111   C     0.09888   0.72034   0.85306   0.00000  Uiso   1.00
H112   H     0.09825   0.70758   0.87974   0.00000  Uiso   1.00
C113   C     0.02579   0.71516   0.97773   0.00000  Uiso   1.00
H114   H     0.80553   0.45311   0.52931   0.00000  Uiso   1.00
O115   O     0.82752   0.73748   0.24907   0.00000  Uiso   1.00
O116   O     0.80165   0.70910   0.20128   0.00000  Uiso   1.00
C117   C     0.82966   0.72180   0.21780   0.00000  Uiso   1.00
C118   C     0.89750   0.73508   0.21375   0.00000  Uiso   1.00
H119   H     0.89690   0.74723   0.24076   0.00000  Uiso   1.00
C120   C     0.86566   0.71961   0.19863   0.00000  Uiso   1.00
C121   C     0.96638   0.72695   0.09782   0.00000  Uiso   1.00
H122   H     0.94066   0.72817   0.08325   0.00000  Uiso   1.00
H123   H     0.81993   0.75773   0.34028   0.00000  Uiso   1.00
C124   C     0.86782   0.70426   0.16336   0.00000  Uiso   1.00
H125   H     0.84402   0.69192   0.15076   0.00000  Uiso   1.00
C126   C     0.93031   0.73592   0.19374   0.00000  Uiso   1.00
H127   H     0.95417   0.74854   0.20596   0.00000  Uiso   1.00
C128   C     0.93203   0.72175   0.15794   0.00000  Uiso   1.00
C129   C     0.96669   0.72391   0.13632   0.00000  Uiso   1.00
C130   C     0.90045   0.70529   0.14336   0.00000  Uiso   1.00
H131   H     0.90084   0.69297   0.11646   0.00000  Uiso   1.00
C132   C     0.97356   0.75313   0.01855   0.00000  Uiso   1.00
H133   H     0.20486   0.45219   0.46359   0.00000  Uiso   1.00
O134   O     0.82472   0.25435   0.74615   0.00000  Uiso   1.00
O135   O     0.79813   0.27880   0.79548   0.00000  Uiso   1.00
C136   C     0.82619   0.26639   0.77898   0.00000  Uiso   1.00
C137   C     0.89394   0.25206   0.78410   0.00000  Uiso   1.00
H138   H     0.89377   0.24057   0.75680   0.00000  Uiso   1.00
C139   C     0.86160   0.26629   0.79940   0.00000  Uiso   1.00
C140   C     0.96402   0.26775   0.89937   0.00000  Uiso   1.00
H141   H     0.93876   0.26535   0.91459   0.00000  Uiso   1.00
H142   H     0.81222   0.26511   0.65005   0.00000  Uiso   1.00
C143   C     0.86325   0.28104   0.83494   0.00000  Uiso   1.00
H144   H     0.83912   0.29262   0.84763   0.00000  Uiso   1.00
C145   C     0.92692   0.25250   0.80397   0.00000  Uiso   1.00
H146   H     0.95128   0.24124   0.79143   0.00000  Uiso   1.00
C147   C     0.92838   0.26695   0.83971   0.00000  Uiso   1.00
C148   C     0.96358   0.26771   0.86075   0.00000  Uiso   1.00
C149   C     0.89603   0.28153   0.85465   0.00000  Uiso   1.00
H150   H     0.89593   0.29414   0.88141   0.00000  Uiso   1.00
C151   C     0.97162   0.29150   0.97905   0.00000  Uiso   1.00
H152   H     0.27407   0.54503   0.53413   0.00000  Uiso   1.00
O153   O     0.25178   0.17119   0.26286   0.00000  Uiso   1.00
O154   O     0.20267   0.19817   0.28768   0.00000  Uiso   1.00
C155   C     0.21977   0.16966   0.27703   0.00000  Uiso   1.00
C156   C     0.21533   0.10163   0.26483   0.00000  Uiso   1.00
H157   H     0.24203   0.10203   0.25201   0.00000  Uiso   1.00
C158   C     0.20056   0.13375   0.28007   0.00000  Uiso   1.00
C159   C     0.09963   0.03270   0.27834   0.00000  Uiso   1.00
H160   H     0.08491   0.05835   0.27793   0.00000  Uiso   1.00
H161   H     0.34243   0.17860   0.23999   0.00000  Uiso   1.00
C162   C     0.16569   0.13184   0.29631   0.00000  Uiso   1.00
H163   H     0.15342   0.15585   0.30858   0.00000  Uiso   1.00
C164   C     0.19530   0.06880   0.26503   0.00000  Uiso   1.00
H165   H     0.20722   0.04475   0.25249   0.00000  Uiso   1.00
C166   C     0.15990   0.06727   0.28021   0.00000  Uiso   1.00
C167   C     0.13825   0.03250   0.27924   0.00000  Uiso   1.00
C168   C     0.14574   0.09916   0.29647   0.00000  Uiso   1.00
H169   H     0.11924   0.09903   0.30963   0.00000  Uiso   1.00
C170   C     0.01902   0.02562   0.25687   0.00000  Uiso   1.00
H171   H     0.46633   0.73280   0.54574   0.00000  Uiso   1.00
O172   O     0.74539   0.17188   0.74327   0.00000  Uiso   1.00
O173   O     0.79566   0.19751   0.71975   0.00000  Uiso   1.00
C174   C     0.77855   0.16987   0.73234   0.00000  Uiso   1.00
C175   C     0.78330   0.10278   0.74996   0.00000  Uiso   1.00
H176   H     0.75591   0.10359   0.76122   0.00000  Uiso   1.00
C177   C     0.79876   0.13433   0.73416   0.00000  Uiso   1.00
C178   C     0.89908   0.03255   0.74057   0.00000  Uiso   1.00
H179   H     0.91396   0.05809   0.74108   0.00000  Uiso   1.00
H180   H     0.65969   0.17404   0.76840   0.00000  Uiso   1.00
C181   C     0.83440   0.13184   0.71981   0.00000  Uiso   1.00
H182   H     0.84721   0.15530   0.70704   0.00000  Uiso   1.00
C183   C     0.80321   0.06982   0.75158   0.00000  Uiso   1.00
H184   H     0.79062   0.04613   0.76413   0.00000  Uiso   1.00
C185   C     0.83912   0.06761   0.73767   0.00000  Uiso   1.00
C186   C     0.86042   0.03255   0.73948   0.00000  Uiso   1.00
C187   C     0.85413   0.09909   0.72135   0.00000  Uiso   1.00
H188   H     0.88100   0.09853   0.70900   0.00000  Uiso   1.00
C189   C     0.98056   0.02509   0.75926   0.00000  Uiso   1.00
H190   H     0.53290   0.80157   0.44966   0.00000  Uiso   1.00
O191   O     0.25078   0.82382   0.74228   0.00000  Uiso   1.00
O192   O     0.20117   0.79824   0.71729   0.00000  Uiso   1.00
C193   C     0.21797   0.82587   0.73028   0.00000  Uiso   1.00
C194   C     0.21384   0.89353   0.74540   0.00000  Uiso   1.00
H195   H     0.24160   0.89312   0.75573   0.00000  Uiso   1.00
C196   C     0.19783   0.86144   0.73139   0.00000  Uiso   1.00
C197   C     0.09824   0.96396   0.73674   0.00000  Uiso   1.00
H198   H     0.08327   0.93866   0.74003   0.00000  Uiso   1.00
H199   H     0.33735   0.82122   0.76822   0.00000  Uiso   1.00
C200   C     0.16171   0.86341   0.71817   0.00000  Uiso   1.00
H201   H     0.14841   0.83947   0.70687   0.00000  Uiso   1.00
C202   C     0.19410   0.92658   0.74626   0.00000  Uiso   1.00
H203   H     0.20717   0.95075   0.75732   0.00000  Uiso   1.00
C204   C     0.15776   0.92832   0.73344   0.00000  Uiso   1.00
C205   C     0.13678   0.96353   0.73421   0.00000  Uiso   1.00
C206   C     0.14209   0.89624   0.71904   0.00000  Uiso   1.00
H207   H     0.11476   0.89643   0.70769   0.00000  Uiso   1.00
C208   C     0.01715   0.97160   0.71876   0.00000  Uiso   1.00
H209   H     0.46391   0.20522   0.45156   0.00000  Uiso   1.00
O210   O     0.74716   0.82857   0.25944   0.00000  Uiso   1.00
O211   O     0.79575   0.80166   0.28537   0.00000  Uiso   1.00
C212   C     0.77893   0.83012   0.27417   0.00000  Uiso   1.00
C213   C     0.78374   0.89818   0.26207   0.00000  Uiso   1.00
H214   H     0.75715   0.89791   0.24903   0.00000  Uiso   1.00
C215   C     0.79825   0.86597   0.27736   0.00000  Uiso   1.00
C216   C     0.89955   0.96664   0.27709   0.00000  Uiso   1.00
H217   H     0.91414   0.94094   0.27572   0.00000  Uiso   1.00
H218   H     0.65674   0.82070   0.23382   0.00000  Uiso   1.00
C219   C     0.83298   0.86771   0.29394   0.00000  Uiso   1.00
H220   H     0.84506   0.84363   0.30627   0.00000  Uiso   1.00
C221   C     0.80389   0.93094   0.26259   0.00000  Uiso   1.00
H222   H     0.79217   0.95509   0.25005   0.00000  Uiso   1.00
C223   C     0.83916   0.93228   0.27810   0.00000  Uiso   1.00
C224   C     0.86094   0.96696   0.27758   0.00000  Uiso   1.00
C225   C     0.85305   0.90030   0.29439   0.00000  Uiso   1.00
H226   H     0.87944   0.90032   0.30779   0.00000  Uiso   1.00
C227   C     0.98033   0.97333   0.29695   0.00000  Uiso   1.00
H228   H     0.53390   0.27392   0.54521   0.00000  Uiso   1.00
O229   O     0.75090   0.75414   0.32369   0.00000  Uiso   1.00
O230   O     0.70176   0.78011   0.29816   0.00000  Uiso   1.00
C231   C     0.71839   0.76694   0.32580   0.00000  Uiso   1.00
C232   C     0.71407   0.75233   0.39357   0.00000  Uiso   1.00
H233   H     0.74139   0.74090   0.39309   0.00000  Uiso   1.00
C234   C     0.69843   0.76671   0.36145   0.00000  Uiso   1.00
C235   C     0.59918   0.76578   0.46409   0.00000  Uiso   1.00
H236   H     0.58419   0.76256   0.43879   0.00000  Uiso   1.00
H237   H     0.83733   0.72462   0.31949   0.00000  Uiso   1.00
C238   C     0.66289   0.78138   0.36349   0.00000  Uiso   1.00
H239   H     0.64992   0.79304   0.33954   0.00000  Uiso   1.00
C240   C     0.69448   0.75254   0.42673   0.00000  Uiso   1.00
H241   H     0.70721   0.74117   0.45094   0.00000  Uiso   1.00
C242   C     0.65870   0.76682   0.42851   0.00000  Uiso   1.00
C243   C     0.63775   0.76709   0.46372   0.00000  Uiso   1.00
C244   C     0.64345   0.78158   0.39641   0.00000  Uiso   1.00
H245   H     0.61661   0.79404   0.39663   0.00000  Uiso   1.00
C246   C     0.51880   0.78609   0.47060   0.00000  Uiso   1.00
H247   H     0.96712   0.04576   0.77566   0.00000  Uiso   1.00
O248   O     0.24675   0.24724   0.32619   0.00000  Uiso   1.00
O249   O     0.29631   0.22098   0.30186   0.00000  Uiso   1.00
C250   C     0.27930   0.23472   0.32900   0.00000  Uiso   1.00
C251   C     0.28360   0.25248   0.39611   0.00000  Uiso   1.00
H252   H     0.25656   0.26450   0.39491   0.00000  Uiso   1.00
C253   C     0.29896   0.23606   0.36482   0.00000  Uiso   1.00
C254   C     0.39863   0.24182   0.46645   0.00000  Uiso   1.00
H255   H     0.41315   0.24367   0.44073   0.00000  Uiso   1.00
H256   H     0.16130   0.27508   0.32180   0.00000  Uiso   1.00
C257   C     0.33412   0.22065   0.36779   0.00000  Uiso   1.00
H258   H     0.34683   0.20734   0.34458   0.00000  Uiso   1.00
C259   C     0.30321   0.25377   0.42927   0.00000  Uiso   1.00
H260   H     0.29079   0.26683   0.45278   0.00000  Uiso   1.00
C261   C     0.33872   0.23897   0.43184   0.00000  Uiso   1.00
C262   C     0.36007   0.24069   0.46681   0.00000  Uiso   1.00
C263   C     0.35355   0.22194   0.40068   0.00000  Uiso   1.00
H264   H     0.38013   0.20896   0.40162   0.00000  Uiso   1.00
C265   C     0.47873   0.22080   0.47192   0.00000  Uiso   1.00
H266   H     0.03060   0.95095   0.70232   0.00000  Uiso   1.00
O267   O     0.75054   0.23923   0.66852   0.00000  Uiso   1.00
O268   O     0.70200   0.21127   0.69338   0.00000  Uiso   1.00
C269   C     0.71902   0.22421   0.66578   0.00000  Uiso   1.00
C270   C     0.71497   0.24055   0.59857   0.00000  Uiso   1.00
H271   H     0.74168   0.25329   0.59988   0.00000  Uiso   1.00
C272   C     0.70010   0.22322   0.62958   0.00000  Uiso   1.00
C273   C     0.59904   0.23400   0.52985   0.00000  Uiso   1.00
H274   H     0.58474   0.23350   0.55575   0.00000  Uiso   1.00
H275   H     0.84280   0.25195   0.67703   0.00000  Uiso   1.00
C276   C     0.66527   0.20709   0.62649   0.00000  Uiso   1.00
H277   H     0.65294   0.19323   0.64958   0.00000  Uiso   1.00
C278   C     0.69498   0.24264   0.56577   0.00000  Uiso   1.00
H279   H     0.70689   0.25680   0.54264   0.00000  Uiso   1.00
C280   C     0.65951   0.22781   0.56326   0.00000  Uiso   1.00
C281   C     0.63757   0.23165   0.52891   0.00000  Uiso   1.00
C282   C     0.64534   0.20928   0.59388   0.00000  Uiso   1.00
H283   H     0.61877   0.19630   0.59279   0.00000  Uiso   1.00
C284   C     0.51894   0.25863   0.52472   0.00000  Uiso   1.00
H285   H     0.96607   0.95317   0.31329   0.00000  Uiso   1.00
O286   O     0.24620   0.75817   0.66782   0.00000  Uiso   1.00
O287   O     0.29527   0.78412   0.69377   0.00000  Uiso   1.00
C288   C     0.27812   0.77247   0.66570   0.00000  Uiso   1.00
C289   C     0.28301   0.75743   0.59820   0.00000  Uiso   1.00
H290   H     0.25655   0.74415   0.59908   0.00000  Uiso   1.00
C291   C     0.29731   0.77441   0.62966   0.00000  Uiso   1.00
C292   C     0.39924   0.76877   0.52999   0.00000  Uiso   1.00
H293   H     0.41356   0.76965   0.55586   0.00000  Uiso   1.00
H294   H     0.15586   0.73462   0.67627   0.00000  Uiso   1.00
C295   C     0.33187   0.79125   0.62714   0.00000  Uiso   1.00
H296   H     0.34374   0.80492   0.65058   0.00000  Uiso   1.00
C297   C     0.30328   0.75640   0.56551   0.00000  Uiso   1.00
H298   H     0.29178   0.74250   0.54201   0.00000  Uiso   1.00
C299   C     0.33847   0.77202   0.56352   0.00000  Uiso   1.00
C300   C     0.36061   0.76949   0.52913   0.00000  Uiso   1.00
C301   C     0.35205   0.79016   0.59463   0.00000  Uiso   1.00
H302   H     0.37832   0.80377   0.59401   0.00000  Uiso   1.00
C303   C     0.48049   0.74818   0.52477   0.00000  Uiso   1.00
H304   H     0.03331   0.04583   0.24061   0.00000  Uiso   1.00
O305   O     0.75354   0.67193   0.24514   0.00000  Uiso   1.00
O306   O     0.77781   0.69770   0.29498   0.00000  Uiso   1.00
C307   C     0.76524   0.66996   0.27806   0.00000  Uiso   1.00
C308   C     0.74814   0.60279   0.28328   0.00000  Uiso   1.00
H309   H     0.73576   0.60364   0.25638   0.00000  Uiso   1.00
C310   C     0.76443   0.63435   0.29817   0.00000  Uiso   1.00
C311   C     0.76192   0.53267   0.39855   0.00000  Uiso   1.00
H312   H     0.76193   0.55826   0.41337   0.00000  Uiso   1.00
H313   H     0.76545   0.68559   0.14952   0.00000  Uiso   1.00
C314   C     0.78027   0.63182   0.33317   0.00000  Uiso   1.00
H315   H     0.79354   0.65527   0.34549   0.00000  Uiso   1.00
C316   C     0.74739   0.56979   0.30317   0.00000  Uiso   1.00
H317   H     0.73440   0.54609   0.29106   0.00000  Uiso   1.00
C318   C     0.76270   0.56757   0.33851   0.00000  Uiso   1.00
C319   C     0.76165   0.53257   0.35990   0.00000  Uiso   1.00
C320   C     0.77960   0.59905   0.35288   0.00000  Uiso   1.00
H321   H     0.79302   0.59845   0.37924   0.00000  Uiso   1.00
C322   C     0.74544   0.52547   0.48038   0.00000  Uiso   1.00
H323   H     0.04582   0.23827   0.03288   0.00000  Uiso   1.00
O324   O     0.23941   0.66895   0.75013   0.00000  Uiso   1.00
O325   O     0.21113   0.69370   0.70172   0.00000  Uiso   1.00
C326   C     0.22420   0.66614   0.71870   0.00000  Uiso   1.00
C327   C     0.24036   0.59887   0.71475   0.00000  Uiso   1.00
H328   H     0.25315   0.60019   0.74143   0.00000  Uiso   1.00
C329   C     0.22311   0.62991   0.69985   0.00000  Uiso   1.00
C330   C     0.23360   0.53002   0.59898   0.00000  Uiso   1.00
H331   H     0.23342   0.55594   0.58471   0.00000  Uiso   1.00
H332   H     0.25190   0.67745   0.84237   0.00000  Uiso   1.00
C333   C     0.20692   0.62679   0.66504   0.00000  Uiso   1.00
H334   H     0.19311   0.64991   0.65269   0.00000  Uiso   1.00
C335   C     0.24230   0.56601   0.69483   0.00000  Uiso   1.00
H336   H     0.25640   0.54285   0.70675   0.00000  Uiso   1.00
C337   C     0.22738   0.56347   0.65939   0.00000  Uiso   1.00
C338   C     0.23104   0.52908   0.63750   0.00000  Uiso   1.00
C339   C     0.20896   0.59414   0.64518   0.00000  Uiso   1.00
H340   H     0.19596   0.59303   0.61862   0.00000  Uiso   1.00
C341   C     0.25866   0.52473   0.51905   0.00000  Uiso   1.00
H342   H     0.95096   0.30691   0.96448   0.00000  Uiso   1.00
O343   O     0.24704   0.32679   0.24640   0.00000  Uiso   1.00
O344   O     0.22073   0.30238   0.29589   0.00000  Uiso   1.00
C345   C     0.23454   0.32953   0.27896   0.00000  Uiso   1.00
C346   C     0.25280   0.39647   0.28350   0.00000  Uiso   1.00
H347   H     0.26497   0.39522   0.25652   0.00000  Uiso   1.00
C348   C     0.23603   0.36530   0.29871   0.00000  Uiso   1.00
C349   C     0.24206   0.46676   0.39858   0.00000  Uiso   1.00
H350   H     0.24351   0.44102   0.41309   0.00000  Uiso   1.00
H351   H     0.27482   0.32248   0.16079   0.00000  Uiso   1.00
C352   C     0.22046   0.36834   0.33379   0.00000  Uiso   1.00
H353   H     0.20689   0.34521   0.34639   0.00000  Uiso   1.00
C354   C     0.25430   0.42958   0.30318   0.00000  Uiso   1.00
H355   H     0.26766   0.45298   0.29088   0.00000  Uiso   1.00
C356   C     0.23932   0.43223   0.33861   0.00000  Uiso   1.00
C357   C     0.24124   0.46715   0.36001   0.00000  Uiso   1.00
C358   C     0.22191   0.40119   0.35329   0.00000  Uiso   1.00
H359   H     0.20877   0.40221   0.37978   0.00000  Uiso   1.00
C360   C     0.22054   0.47237   0.47853   0.00000  Uiso   1.00
H361   H     0.95334   0.76856   0.03372   0.00000  Uiso   1.00
O362   O     0.75939   0.32764   0.74901   0.00000  Uiso   1.00
O363   O     0.78814   0.30163   0.70150   0.00000  Uiso   1.00
C364   C     0.77545   0.32969   0.71791   0.00000  Uiso   1.00
C365   C     0.76312   0.39771   0.71385   0.00000  Uiso   1.00
H366   H     0.75068   0.39724   0.74073   0.00000  Uiso   1.00
C367   C     0.77825   0.36567   0.69882   0.00000  Uiso   1.00
C368   C     0.77343   0.46642   0.59808   0.00000  Uiso   1.00
H369   H     0.77105   0.44070   0.58364   0.00000  Uiso   1.00
H370   H     0.73509   0.32002   0.83939   0.00000  Uiso   1.00
C371   C     0.79403   0.36766   0.66373   0.00000  Uiso   1.00
H372   H     0.80615   0.34370   0.65121   0.00000  Uiso   1.00
C373   C     0.76303   0.43057   0.69390   0.00000  Uiso   1.00
H374   H     0.75068   0.45462   0.70603   0.00000  Uiso   1.00
C375   C     0.77761   0.43211   0.65825   0.00000  Uiso   1.00
C376   C     0.77617   0.46676   0.63658   0.00000  Uiso   1.00
C377   C     0.79374   0.40033   0.64379   0.00000  Uiso   1.00
H378   H     0.80637   0.40059   0.61702   0.00000  Uiso   1.00
C379   C     0.78822   0.47325   0.51620   0.00000  Uiso   1.00
H380   H     0.04589   0.69954   0.96260   0.00000  Uiso   1.00
O381   O     0.67237   0.75244   0.24363   0.00000  Uiso   1.00
O382   O     0.69731   0.70218   0.21935   0.00000  Uiso   1.00
C383   C     0.66995   0.71941   0.23238   0.00000  Uiso   1.00
C384   C     0.60277   0.71540   0.24990   0.00000  Uiso   1.00
H385   H     0.60371   0.74296   0.26071   0.00000  Uiso   1.00
C386   C     0.63426   0.69951   0.23440   0.00000  Uiso   1.00
C387   C     0.53255   0.59975   0.24308   0.00000  Uiso   1.00
H388   H     0.55818   0.58511   0.24509   0.00000  Uiso   1.00
H389   H     0.67534   0.83835   0.26807   0.00000  Uiso   1.00
C390   C     0.63158   0.66367   0.22059   0.00000  Uiso   1.00
H391   H     0.65498   0.65051   0.20806   0.00000  Uiso   1.00
C392   C     0.56969   0.69570   0.25182   0.00000  Uiso   1.00
H393   H     0.54604   0.70859   0.26414   0.00000  Uiso   1.00
C394   C     0.56735   0.65957   0.23854   0.00000  Uiso   1.00
C395   C     0.53233   0.63830   0.24086   0.00000  Uiso   1.00
C396   C     0.59875   0.64414   0.22246   0.00000  Uiso   1.00
H397   H     0.59805   0.61702   0.21065   0.00000  Uiso   1.00
C398   C     0.52581   0.51891   0.22440   0.00000  Uiso   1.00
H399   H     0.30662   0.96509   0.95038   0.00000  Uiso   1.00
O400   O     0.66819   0.24593   0.75798   0.00000  Uiso   1.00
O401   O     0.69406   0.29512   0.78381   0.00000  Uiso   1.00
C402   C     0.66600   0.27783   0.77231   0.00000  Uiso   1.00
C403   C     0.59848   0.28268   0.75734   0.00000  Uiso   1.00
H404   H     0.59950   0.25649   0.74353   0.00000  Uiso   1.00
C405   C     0.62988   0.29680   0.77458   0.00000  Uiso   1.00
C406   C     0.53006   0.39844   0.77086   0.00000  Uiso   1.00
H407   H     0.55594   0.41273   0.77196   0.00000  Uiso   1.00
H408   H     0.67719   0.15555   0.73401   0.00000  Uiso   1.00
C409   C     0.62721   0.33100   0.79209   0.00000  Uiso   1.00
H410   H     0.65060   0.34271   0.80599   0.00000  Uiso   1.00
C411   C     0.56569   0.30281   0.75669   0.00000  Uiso   1.00
H412   H     0.54225   0.29150   0.74255   0.00000  Uiso   1.00
C413   C     0.56355   0.33768   0.77300   0.00000  Uiso   1.00
C414   C     0.52914   0.35983   0.77081   0.00000  Uiso   1.00
C415   C     0.59460   0.35102   0.79143   0.00000  Uiso   1.00
H416   H     0.59387   0.37700   0.80558   0.00000  Uiso   1.00
C417   C     0.52477   0.47995   0.75155   0.00000  Uiso   1.00
H418   H     0.23831   0.03285   0.04596   0.00000  Uiso   1.00
O419   O     0.32772   0.74987   0.75941   0.00000  Uiso   1.00
O420   O     0.30175   0.70216   0.78785   0.00000  Uiso   1.00
C421   C     0.32983   0.71876   0.77541   0.00000  Uiso   1.00
C422   C     0.39778   0.71450   0.76267   0.00000  Uiso   1.00
H423   H     0.39715   0.74101   0.74946   0.00000  Uiso   1.00
C424   C     0.36589   0.69986   0.77851   0.00000  Uiso   1.00
C425   C     0.46653   0.59906   0.77556   0.00000  Uiso   1.00
H426   H     0.44072   0.58470   0.77382   0.00000  Uiso   1.00
H427   H     0.31930   0.84026   0.73443   0.00000  Uiso   1.00
C428   C     0.36810   0.66525   0.79528   0.00000  Uiso   1.00
H429   H     0.34427   0.65305   0.80798   0.00000  Uiso   1.00
C430   C     0.43067   0.69457   0.76279   0.00000  Uiso   1.00
H431   H     0.45456   0.70634   0.74982   0.00000  Uiso   1.00
C432   C     0.43239   0.65936   0.77837   0.00000  Uiso   1.00
C433   C     0.46701   0.63761   0.77712   0.00000  Uiso   1.00
C434   C     0.40079   0.64536   0.79527   0.00000  Uiso   1.00
H435   H     0.40120   0.61898   0.80868   0.00000  Uiso   1.00
C436   C     0.47228   0.51774   0.79222   0.00000  Uiso   1.00
H437   H     0.76821   0.96638   0.04537   0.00000  Uiso   1.00
O438   O     0.32655   0.24745   0.24686   0.00000  Uiso   1.00
O439   O     0.30214   0.29683   0.22035   0.00000  Uiso   1.00
C440   C     0.32927   0.28001   0.23436   0.00000  Uiso   1.00
C441   C     0.39621   0.28455   0.25259   0.00000  Uiso   1.00
H442   H     0.39508   0.25738   0.26432   0.00000  Uiso   1.00
C443   C     0.36497   0.29991   0.23610   0.00000  Uiso   1.00
C444   C     0.46659   0.39987   0.24392   0.00000  Uiso   1.00
H445   H     0.44094   0.41457   0.24476   0.00000  Uiso   1.00
H446   H     0.32294   0.16195   0.27423   0.00000  Uiso   1.00
C447   C     0.36787   0.33527   0.22112   0.00000  Uiso   1.00
H448   H     0.34467   0.34800   0.20780   0.00000  Uiso   1.00
C449   C     0.42926   0.30429   0.25433   0.00000  Uiso   1.00
H450   H     0.45272   0.29183   0.26742   0.00000  Uiso   1.00
C451   C     0.43180   0.33998   0.23992   0.00000  Uiso   1.00
C452   C     0.46678   0.36128   0.24207   0.00000  Uiso   1.00
C453   C     0.40067   0.35488   0.22288   0.00000  Uiso   1.00
H454   H     0.40159   0.38162   0.21024   0.00000  Uiso   1.00
C455   C     0.47373   0.48063   0.26515   0.00000  Uiso   1.00
H456   H     0.69909   0.03283   0.94946   0.00000  Uiso   1.00
O457   O     0.74592   0.74795   0.82377   0.00000  Uiso   1.00
O458   O     0.71951   0.79689   0.79836   0.00000  Uiso   1.00
C459   C     0.73305   0.78042   0.82591   0.00000  Uiso   1.00
C460   C     0.74817   0.78496   0.89356   0.00000  Uiso   1.00
H461   H     0.75940   0.75755   0.89312   0.00000  Uiso   1.00
C462   C     0.73366   0.80054   0.86148   0.00000  Uiso   1.00
C463   C     0.73554   0.90011   0.96390   0.00000  Uiso   1.00
H464   H     0.73870   0.91507   0.93858   0.00000  Uiso   1.00
H465   H     0.77449   0.66186   0.82047   0.00000  Uiso   1.00
C466   C     0.71924   0.83620   0.86347   0.00000  Uiso   1.00
H467   H     0.70749   0.84914   0.83956   0.00000  Uiso   1.00
C468   C     0.74833   0.80467   0.92664   0.00000  Uiso   1.00
H469   H     0.75979   0.79197   0.95082   0.00000  Uiso   1.00
C470   C     0.73427   0.84054   0.92839   0.00000  Uiso   1.00
C471   C     0.73420   0.86154   0.96358   0.00000  Uiso   1.00
C472   C     0.71942   0.85578   0.89632   0.00000  Uiso   1.00
H473   H     0.70716   0.88271   0.89651   0.00000  Uiso   1.00
C474   C     0.71488   0.98040   0.97033   0.00000  Uiso   1.00
H475   H     0.45355   0.53333   0.28134   0.00000  Uiso   1.00
O476   O     0.25952   0.24982   0.82740   0.00000  Uiso   1.00
O477   O     0.28816   0.20219   0.80149   0.00000  Uiso   1.00
C478   C     0.27562   0.21875   0.82954   0.00000  Uiso   1.00
C479   C     0.26303   0.21456   0.89753   0.00000  Uiso   1.00
H480   H     0.24984   0.24107   0.89692   0.00000  Uiso   1.00
C481   C     0.27875   0.19987   0.86560   0.00000  Uiso   1.00
C482   C     0.27601   0.09918   0.96628   0.00000  Uiso   1.00
H483   H     0.27396   0.08484   0.94047   0.00000  Uiso   1.00
H484   H     0.23460   0.34012   0.81910   0.00000  Uiso   1.00
C485   C     0.29550   0.16525   0.86778   0.00000  Uiso   1.00
H486   H     0.30811   0.15302   0.84393   0.00000  Uiso   1.00
C487   C     0.26327   0.19466   0.93045   0.00000  Uiso   1.00
H488   H     0.25041   0.20646   0.95439   0.00000  Uiso   1.00
C489   C     0.27884   0.15945   0.93214   0.00000  Uiso   1.00
C490   C     0.27775   0.13772   0.96677   0.00000  Uiso   1.00
C491   C     0.29559   0.14540   0.90049   0.00000  Uiso   1.00
H492   H     0.30898   0.11900   0.90087   0.00000  Uiso   1.00
C493   C     0.29264   0.01788   0.97180   0.00000  Uiso   1.00
H494   H     0.54589   0.46634   0.20800   0.00000  Uiso   1.00
O495   O     0.26156   0.74595   0.16792   0.00000  Uiso   1.00
O496   O     0.28649   0.79557   0.19383   0.00000  Uiso   1.00
C497   C     0.27539   0.77806   0.16574   0.00000  Uiso   1.00
C498   C     0.26013   0.78269   0.09829   0.00000  Uiso   1.00
H499   H     0.24657   0.75638   0.09939   0.00000  Uiso   1.00
C500   C     0.27741   0.79699   0.12959   0.00000  Uiso   1.00
C501   C     0.27211   0.89858   0.02976   0.00000  Uiso   1.00
H502   H     0.27338   0.91289   0.05562   0.00000  Uiso   1.00
H503   H     0.23992   0.65533   0.17655   0.00000  Uiso   1.00
C504   C     0.29460   0.83134   0.12679   0.00000  Uiso   1.00
H505   H     0.30852   0.84319   0.15010   0.00000  Uiso   1.00
C506   C     0.25907   0.80281   0.06551   0.00000  Uiso   1.00
H507   H     0.24487   0.79136   0.04217   0.00000  Uiso   1.00
C508   C     0.27501   0.83784   0.06326   0.00000  Uiso   1.00
C509   C     0.27233   0.85996   0.02886   0.00000  Uiso   1.00
C510   C     0.29354   0.85135   0.09418   0.00000  Uiso   1.00
H511   H     0.30744   0.87746   0.09336   0.00000  Uiso   1.00
C512   C     0.25245   0.98004   0.02462   0.00000  Uiso   1.00
H513   H     0.54594   0.53277   0.73724   0.00000  Uiso   1.00
O514   O     0.73913   0.25213   0.16845   0.00000  Uiso   1.00
O515   O     0.71193   0.20347   0.19389   0.00000  Uiso   1.00
C516   C     0.72441   0.22044   0.16605   0.00000  Uiso   1.00
C517   C     0.74013   0.21594   0.09868   0.00000  Uiso   1.00
H518   H     0.75307   0.24257   0.09976   0.00000  Uiso   1.00
C519   C     0.72307   0.20130   0.12994   0.00000  Uiso   1.00
C520   C     0.73093   0.09995   0.02991   0.00000  Uiso   1.00
H521   H     0.73033   0.08556   0.05574   0.00000  Uiso   1.00
H522   H     0.75080   0.34428   0.17587   0.00000  Uiso   1.00
C523   C     0.70665   0.16658   0.12713   0.00000  Uiso   1.00
H524   H     0.69293   0.15444   0.15041   0.00000  Uiso   1.00
C525   C     0.74164   0.19586   0.06589   0.00000  Uiso   1.00
H526   H     0.75557   0.20763   0.04254   0.00000  Uiso   1.00
C527   C     0.72645   0.16051   0.06361   0.00000  Uiso   1.00
C528   C     0.72948   0.13856   0.02914   0.00000  Uiso   1.00
C529   C     0.70825   0.14655   0.09453   0.00000  Uiso   1.00
H530   H     0.69499   0.12011   0.09368   0.00000  Uiso   1.00
C531   C     0.75262   0.01899   0.02442   0.00000  Uiso   1.00
H532   H     0.45102   0.46493   0.80637   0.00000  Uiso   1.00
O533   O     0.82703   0.74662   0.74523   0.00000  Uiso   1.00
O534   O     0.80191   0.72103   0.79475   0.00000  Uiso   1.00
C535   C     0.82936   0.73437   0.77794   0.00000  Uiso   1.00
C536   C     0.89645   0.75202   0.78304   0.00000  Uiso   1.00
H537   H     0.89550   0.76433   0.75612   0.00000  Uiso   1.00
C538   C     0.86501   0.73551   0.79797   0.00000  Uiso   1.00
C539   C     0.96663   0.73909   0.89832   0.00000  Uiso   1.00
H540   H     0.94101   0.73927   0.91309   0.00000  Uiso   1.00
H541   H     0.82387   0.77467   0.65983   0.00000  Uiso   1.00
C542   C     0.86768   0.71974   0.83300   0.00000  Uiso   1.00
H543   H     0.84435   0.70630   0.84535   0.00000  Uiso   1.00
C544   C     0.92946   0.75302   0.80292   0.00000  Uiso   1.00
H545   H     0.95308   0.76615   0.79079   0.00000  Uiso   1.00
C546   C     0.93180   0.73778   0.83827   0.00000  Uiso   1.00
C547   C     0.96680   0.73900   0.85967   0.00000  Uiso   1.00
C548   C     0.90045   0.72071   0.85270   0.00000  Uiso   1.00
H549   H     0.90114   0.70738   0.87910   0.00000  Uiso   1.00
C550   C     0.97369   0.75568   0.98018   0.00000  Uiso   1.00
H551   H     0.20273   0.45111   0.53020   0.00000  Uiso   1.00
O552   O     0.82750   0.26269   0.24968   0.00000  Uiso   1.00
O553   O     0.80154   0.29063   0.20167   0.00000  Uiso   1.00
C554   C     0.82962   0.27840   0.21842   0.00000  Uiso   1.00
C555   C     0.89760   0.26563   0.21440   0.00000  Uiso   1.00
H556   H     0.89694   0.25270   0.24104   0.00000  Uiso   1.00
C557   C     0.86573   0.28131   0.19955   0.00000  Uiso   1.00
C558   C     0.96644   0.27721   0.09887   0.00000  Uiso   1.00
H559   H     0.94063   0.27530   0.08453   0.00000  Uiso   1.00
H560   H     0.81948   0.24056   0.34043   0.00000  Uiso   1.00
C561   C     0.86798   0.29770   0.16476   0.00000  Uiso   1.00
H562   H     0.84417   0.31027   0.15241   0.00000  Uiso   1.00
C563   C     0.93052   0.26552   0.19450   0.00000  Uiso   1.00
H564   H     0.95439   0.25264   0.20643   0.00000  Uiso   1.00
C565   C     0.93229   0.28071   0.15913   0.00000  Uiso   1.00
C566   C     0.96693   0.27921   0.13740   0.00000  Uiso   1.00
C567   C     0.90070   0.29745   0.14492   0.00000  Uiso   1.00
H568   H     0.90113   0.31056   0.11838   0.00000  Uiso   1.00
C569   C     0.97219   0.29316   0.01741   0.00000  Uiso   1.00
H570   H     0.27656   0.54594   0.46732   0.00000  Uiso   1.00
O571   O     0.16807   0.25832   0.74563   0.00000  Uiso   1.00
O572   O     0.19396   0.28421   0.79478   0.00000  Uiso   1.00
C573   C     0.16590   0.27267   0.77753   0.00000  Uiso   1.00
C574   C     0.09842   0.25758   0.78245   0.00000  Uiso   1.00
H575   H     0.09942   0.24381   0.75624   0.00000  Uiso   1.00
C576   C     0.12980   0.27486   0.79655   0.00000  Uiso   1.00
C577   C     0.03002   0.27103   0.89829   0.00000  Uiso   1.00
H578   H     0.05589   0.27218   0.91260   0.00000  Uiso   1.00
H579   H     0.17695   0.23424   0.65535   0.00000  Uiso   1.00
C580   C     0.12714   0.29233   0.83077   0.00000  Uiso   1.00
H581   H     0.15053   0.30626   0.84247   0.00000  Uiso   1.00
C582   C     0.06566   0.25685   0.80263   0.00000  Uiso   1.00
H583   H     0.04223   0.24269   0.79133   0.00000  Uiso   1.00
C584   C     0.06353   0.27312   0.83752   0.00000  Uiso   1.00
C585   C     0.02912   0.27090   0.85967   0.00000  Uiso   1.00
C586   C     0.09457   0.29158   0.85085   0.00000  Uiso   1.00
H587   H     0.09385   0.30570   0.87684   0.00000  Uiso   1.00
C588   C     0.02467   0.25217   0.97994   0.00000  Uiso   1.00
H589   H     0.73242   0.54566   0.53391   0.00000  Uiso   1.00
O590   O     0.17149   0.73835   0.24887   0.00000  Uiso   1.00
O591   O     0.19741   0.70994   0.20116   0.00000  Uiso   1.00
C592   C     0.16940   0.72273   0.21759   0.00000  Uiso   1.00
C593   C     0.10151   0.73578   0.21359   0.00000  Uiso   1.00
H594   H     0.10205   0.74781   0.24066   0.00000  Uiso   1.00
C595   C     0.13344   0.72062   0.19835   0.00000  Uiso   1.00
C596   C     0.03251   0.72707   0.09783   0.00000  Uiso   1.00
H597   H     0.05821   0.72943   0.08336   0.00000  Uiso   1.00
H598   H     0.17835   0.75251   0.34097   0.00000  Uiso   1.00
C599   C     0.13133   0.70533   0.16306   0.00000  Uiso   1.00
H600   H     0.15520   0.69317   0.15041   0.00000  Uiso   1.00
C601   C     0.06863   0.73635   0.19367   0.00000  Uiso   1.00
H602   H     0.04467   0.74868   0.20599   0.00000  Uiso   1.00
C603   C     0.06695   0.72221   0.15787   0.00000  Uiso   1.00
C604   C     0.03223   0.72405   0.13631   0.00000  Uiso   1.00
C605   C     0.09864   0.70609   0.14315   0.00000  Uiso   1.00
H606   H     0.09829   0.69379   0.11623   0.00000  Uiso   1.00
C607   C     0.02568   0.71264   0.01603   0.00000  Uiso   1.00
H608   H     0.80146   0.45320   0.46271   0.00000  Uiso   1.00
O609   O     0.74661   0.82637   0.74361   0.00000  Uiso   1.00
O610   O     0.79671   0.80192   0.71849   0.00000  Uiso   1.00
C611   C     0.77942   0.82911   0.73176   0.00000  Uiso   1.00
C612   C     0.78356   0.89611   0.74996   0.00000  Uiso   1.00
H613   H     0.75645   0.89481   0.76182   0.00000  Uiso   1.00
C614   C     0.79904   0.86495   0.73340   0.00000  Uiso   1.00
C615   C     0.89868   0.96653   0.74058   0.00000  Uiso   1.00
H616   H     0.91319   0.94080   0.74221   0.00000  Uiso   1.00
H617   H     0.66070   0.82257   0.76903   0.00000  Uiso   1.00
C618   C     0.83429   0.86804   0.71825   0.00000  Uiso   1.00
H619   H     0.84709   0.84493   0.70485   0.00000  Uiso   1.00
C620   C     0.80317   0.92925   0.75168   0.00000  Uiso   1.00
H621   H     0.79068   0.95264   0.76488   0.00000  Uiso   1.00
C622   C     0.83878   0.93195   0.73713   0.00000  Uiso   1.00
C623   C     0.86012   0.96691   0.73930   0.00000  Uiso   1.00
C624   C     0.85371   0.90092   0.71993   0.00000  Uiso   1.00
H625   H     0.88038   0.90196   0.70714   0.00000  Uiso   1.00
C626   C     0.97880   0.97217   0.71978   0.00000  Uiso   1.00
H627   H     0.53053   0.20352   0.45056   0.00000  Uiso   1.00
O628   O     0.25138   0.82808   0.25960   0.00000  Uiso   1.00
O629   O     0.20340   0.80147   0.28698   0.00000  Uiso   1.00
C630   C     0.21998   0.82980   0.27512   0.00000  Uiso   1.00
C631   C     0.21535   0.89792   0.26313   0.00000  Uiso   1.00
H632   H     0.24187   0.89756   0.24994   0.00000  Uiso   1.00
C633   C     0.20081   0.86574   0.27846   0.00000  Uiso   1.00
C634   C     0.09978   0.96658   0.27806   0.00000  Uiso   1.00
H635   H     0.08522   0.94087   0.27638   0.00000  Uiso   1.00
H636   H     0.34175   0.82055   0.23425   0.00000  Uiso   1.00
C637   C     0.16613   0.86759   0.29515   0.00000  Uiso   1.00
H638   H     0.15399   0.84353   0.30746   0.00000  Uiso   1.00
C639   C     0.19534   0.93077   0.26379   0.00000  Uiso   1.00
H640   H     0.20709   0.95490   0.25124   0.00000  Uiso   1.00
C641   C     0.16012   0.93221   0.27941   0.00000  Uiso   1.00
C642   C     0.13838   0.96692   0.27893   0.00000  Uiso   1.00
C643   C     0.14617   0.90025   0.29568   0.00000  Uiso   1.00
H644   H     0.11979   0.90034   0.30910   0.00000  Uiso   1.00
C645   C     0.01875   0.97328   0.29714   0.00000  Uiso   1.00
H646   H     0.46707   0.27600   0.54603   0.00000  Uiso   1.00
O647   O     0.74708   0.17084   0.25964   0.00000  Uiso   1.00
O648   O     0.79570   0.19783   0.28541   0.00000  Uiso   1.00
C649   C     0.77890   0.16934   0.27428   0.00000  Uiso   1.00
C650   C     0.78381   0.10133   0.26206   0.00000  Uiso   1.00
H651   H     0.75721   0.10159   0.24903   0.00000  Uiso   1.00
C652   C     0.79828   0.13352   0.27741   0.00000  Uiso   1.00
C653   C     0.89965   0.03277   0.27696   0.00000  Uiso   1.00
H654   H     0.91433   0.05845   0.27655   0.00000  Uiso   1.00
H655   H     0.65677   0.17831   0.23442   0.00000  Uiso   1.00
C656   C     0.83302   0.13178   0.29398   0.00000  Uiso   1.00
H657   H     0.84506   0.15585   0.30637   0.00000  Uiso   1.00
C658   C     0.80398   0.06859   0.26251   0.00000  Uiso   1.00
H659   H     0.79228   0.04445   0.24994   0.00000  Uiso   1.00
C660   C     0.83926   0.06724   0.27803   0.00000  Uiso   1.00
C661   C     0.86101   0.03254   0.27746   0.00000  Uiso   1.00
C662   C     0.85312   0.09920   0.29438   0.00000  Uiso   1.00
H663   H     0.87948   0.09918   0.30782   0.00000  Uiso   1.00
C664   C     0.98058   0.02564   0.25664   0.00000  Uiso   1.00
H665   H     0.53320   0.73303   0.54575   0.00000  Uiso   1.00
O666   O     0.25041   0.16886   0.73915   0.00000  Uiso   1.00
O667   O     0.20197   0.19361   0.71093   0.00000  Uiso   1.00
C668   C     0.21896   0.16605   0.72400   0.00000  Uiso   1.00
C669   C     0.21498   0.09877   0.74019   0.00000  Uiso   1.00
H670   H     0.24171   0.10006   0.75289   0.00000  Uiso   1.00
C671   C     0.20007   0.12983   0.72297   0.00000  Uiso   1.00
C672   C     0.09910   0.02996   0.73353   0.00000  Uiso   1.00
H673   H     0.08480   0.05586   0.73330   0.00000  Uiso   1.00
H674   H     0.34261   0.17737   0.75161   0.00000  Uiso   1.00
C675   C     0.16522   0.12674   0.70687   0.00000  Uiso   1.00
H676   H     0.15286   0.14986   0.69307   0.00000  Uiso   1.00
C677   C     0.19502   0.06594   0.74220   0.00000  Uiso   1.00
H678   H     0.20697   0.04276   0.75625   0.00000  Uiso   1.00
C679   C     0.15953   0.06344   0.72739   0.00000  Uiso   1.00
C680   C     0.13763   0.02905   0.73107   0.00000  Uiso   1.00
C681   C     0.14531   0.09411   0.70899   0.00000  Uiso   1.00
H682   H     0.11873   0.09303   0.69604   0.00000  Uiso   1.00
C683   C     0.01900   0.02461   0.75811   0.00000  Uiso   1.00
H684   H     0.46625   0.80139   0.44965   0.00000  Uiso   1.00
O685   O     0.24523   0.24343   0.67162   0.00000  Uiso   1.00
O686   O     0.29556   0.22011   0.69732   0.00000  Uiso   1.00
C687   C     0.27843   0.23259   0.66965   0.00000  Uiso   1.00
C688   C     0.28325   0.25049   0.60267   0.00000  Uiso   1.00
H689   H     0.25592   0.26189   0.60354   0.00000  Uiso   1.00
C690   C     0.29862   0.23444   0.63413   0.00000  Uiso   1.00
C691   C     0.39902   0.24111   0.53246   0.00000  Uiso   1.00
H692   H     0.41390   0.24127   0.55801   0.00000  Uiso   1.00
H693   H     0.15955   0.26871   0.67379   0.00000  Uiso   1.00
C694   C     0.33419   0.21991   0.63156   0.00000  Uiso   1.00
H695   H     0.34692   0.20693   0.65495   0.00000  Uiso   1.00
C696   C     0.30318   0.25225   0.56974   0.00000  Uiso   1.00
H697   H     0.29066   0.26503   0.54613   0.00000  Uiso   1.00
C698   C     0.33903   0.23819   0.56746   0.00000  Uiso   1.00
C699   C     0.36035   0.24019   0.53244   0.00000  Uiso   1.00
C700   C     0.35394   0.22156   0.59883   0.00000  Uiso   1.00
H701   H     0.38075   0.20908   0.59819   0.00000  Uiso   1.00
C702   C     0.48050   0.25979   0.52522   0.00000  Uiso   1.00
H703   H     0.03280   0.95307   0.31360   0.00000  Uiso   1.00
O704   O     0.75269   0.76147   0.66813   0.00000  Uiso   1.00
O705   O     0.70315   0.78657   0.69404   0.00000  Uiso   1.00
C706   C     0.72059   0.77533   0.66597   0.00000  Uiso   1.00
C707   C     0.71615   0.76015   0.59851   0.00000  Uiso   1.00
H708   H     0.74271   0.74709   0.59954   0.00000  Uiso   1.00
C709   C     0.70157   0.77711   0.62985   0.00000  Uiso   1.00
C710   C     0.60000   0.76979   0.53004   0.00000  Uiso   1.00
H711   H     0.58564   0.77072   0.55589   0.00000  Uiso   1.00
H712   H     0.84336   0.74036   0.67641   0.00000  Uiso   1.00
C713   C     0.66687   0.79362   0.62714   0.00000  Uiso   1.00
H714   H     0.65478   0.80724   0.65050   0.00000  Uiso   1.00
C715   C     0.69601   0.75877   0.56576   0.00000  Uiso   1.00
H716   H     0.70771   0.74485   0.54237   0.00000  Uiso   1.00
C717   C     0.66067   0.77401   0.56359   0.00000  Uiso   1.00
C718   C     0.63862   0.77093   0.52920   0.00000  Uiso   1.00
C719   C     0.64682   0.79219   0.59456   0.00000  Uiso   1.00
H720   H     0.62041   0.80552   0.59380   0.00000  Uiso   1.00
C721   C     0.51895   0.74831   0.52478   0.00000  Uiso   1.00
H722   H     0.96653   0.04587   0.24021   0.00000  Uiso   1.00
O723   O     0.24794   0.75436   0.32396   0.00000  Uiso   1.00
O724   O     0.29727   0.77960   0.29812   0.00000  Uiso   1.00
C725   C     0.28060   0.76677   0.32589   0.00000  Uiso   1.00
C726   C     0.28511   0.75198   0.39356   0.00000  Uiso   1.00
H727   H     0.25779   0.74056   0.39311   0.00000  Uiso   1.00
C728   C     0.30067   0.76648   0.36147   0.00000  Uiso   1.00
C729   C     0.40015   0.76536   0.46401   0.00000  Uiso   1.00
H730   H     0.41518   0.76249   0.43868   0.00000  Uiso   1.00
H731   H     0.15168   0.76465   0.30970   0.00000  Uiso   1.00
C732   C     0.33623   0.78112   0.36347   0.00000  Uiso   1.00
H733   H     0.34913   0.79288   0.33953   0.00000  Uiso   1.00
C734   C     0.30479   0.75200   0.42665   0.00000  Uiso   1.00
H735   H     0.29211   0.74052   0.45084   0.00000  Uiso   1.00
C736   C     0.34059   0.76623   0.42841   0.00000  Uiso   1.00
C737   C     0.36157   0.76634   0.46361   0.00000  Uiso   1.00
C738   C     0.35577   0.78115   0.39634   0.00000  Uiso   1.00
H739   H     0.38260   0.79361   0.39655   0.00000  Uiso   1.00
C740   C     0.48042   0.78598   0.47060   0.00000  Uiso   1.00
H741   H     0.03395   0.04495   0.77359   0.00000  Uiso   1.00
O742   O     0.75052   0.24575   0.32374   0.00000  Uiso   1.00
O743   O     0.70141   0.21971   0.29824   0.00000  Uiso   1.00
C744   C     0.71793   0.23313   0.32582   0.00000  Uiso   1.00
C745   C     0.71364   0.24787   0.39354   0.00000  Uiso   1.00
H746   H     0.74132   0.25841   0.39321   0.00000  Uiso   1.00
C747   C     0.69774   0.23397   0.36135   0.00000  Uiso   1.00
C748   C     0.59816   0.23787   0.46389   0.00000  Uiso   1.00
H749   H     0.58318   0.24139   0.43862   0.00000  Uiso   1.00
H750   H     0.83667   0.27433   0.32056   0.00000  Uiso   1.00
C751   C     0.66171   0.22047   0.36321   0.00000  Uiso   1.00
H752   H     0.64850   0.20926   0.33918   0.00000  Uiso   1.00
C753   C     0.69390   0.24828   0.42660   0.00000  Uiso   1.00
H754   H     0.70689   0.25922   0.45087   0.00000  Uiso   1.00
C755   C     0.65767   0.23516   0.42823   0.00000  Uiso   1.00
C756   C     0.63669   0.23545   0.46343   0.00000  Uiso   1.00
C757   C     0.64208   0.22094   0.39604   0.00000  Uiso   1.00
H758   H     0.61483   0.20941   0.39613   0.00000  Uiso   1.00
C759   C     0.51709   0.21976   0.47135   0.00000  Uiso   1.00
H760   H     0.96398   0.95196   0.70399   0.00000  Uiso   1.00
O761   O     0.24244   0.32377   0.75045   0.00000  Uiso   1.00
O762   O     0.21749   0.29818   0.70082   0.00000  Uiso   1.00
C763   C     0.23042   0.32582   0.71764   0.00000  Uiso   1.00
C764   C     0.24538   0.39350   0.71360   0.00000  Uiso   1.00
H765   H     0.25568   0.39308   0.74137   0.00000  Uiso   1.00
C766   C     0.23147   0.36140   0.69754   0.00000  Uiso   1.00
C767   C     0.23681   0.46402   0.59808   0.00000  Uiso   1.00
H768   H     0.24015   0.43873   0.58309   0.00000  Uiso   1.00
H769   H     0.26852   0.32115   0.83700   0.00000  Uiso   1.00
C770   C     0.21830   0.36338   0.66140   0.00000  Uiso   1.00
H771   H     0.20708   0.33942   0.64806   0.00000  Uiso   1.00
C772   C     0.24619   0.42658   0.69390   0.00000  Uiso   1.00
H773   H     0.25720   0.45076   0.70701   0.00000  Uiso   1.00
C774   C     0.23342   0.42833   0.65756   0.00000  Uiso   1.00
C775   C     0.23417   0.46356   0.63660   0.00000  Uiso   1.00
C776   C     0.21913   0.39623   0.64181   0.00000  Uiso   1.00
H777   H     0.20784   0.39642   0.61446   0.00000  Uiso   1.00
C778   C     0.21926   0.47176   0.51688   0.00000  Uiso   1.00
H779   H     0.95356   0.77297   0.96704   0.00000  Uiso   1.00
O780   O     0.75336   0.32744   0.24510   0.00000  Uiso   1.00
O781   O     0.77755   0.30179   0.29504   0.00000  Uiso   1.00
C782   C     0.76502   0.32949   0.27803   0.00000  Uiso   1.00
C783   C     0.74817   0.39675   0.28304   0.00000  Uiso   1.00
H784   H     0.73592   0.39592   0.25608   0.00000  Uiso   1.00
C785   C     0.76425   0.36514   0.29805   0.00000  Uiso   1.00
C786   C     0.76186   0.46665   0.39837   0.00000  Uiso   1.00
H787   H     0.76073   0.44101   0.41309   0.00000  Uiso   1.00
H788   H     0.76537   0.31368   0.14966   0.00000  Uiso   1.00
C789   C     0.77996   0.36764   0.33311   0.00000  Uiso   1.00
H790   H     0.79307   0.34415   0.34552   0.00000  Uiso   1.00
C791   C     0.74751   0.42979   0.30288   0.00000  Uiso   1.00
H792   H     0.73472   0.45355   0.29067   0.00000  Uiso   1.00
C793   C     0.76265   0.43195   0.33829   0.00000  Uiso   1.00
C794   C     0.76165   0.46692   0.35975   0.00000  Uiso   1.00
C795   C     0.77935   0.40042   0.35277   0.00000  Uiso   1.00
H796   H     0.79264   0.40099   0.37919   0.00000  Uiso   1.00
C797   C     0.78584   0.47327   0.47787   0.00000  Uiso   1.00
H798   H     0.04571   0.69520   0.02913   0.00000  Uiso   1.00
O799   O     0.76270   0.67111   0.74963   0.00000  Uiso   1.00
O800   O     0.78900   0.69754   0.70098   0.00000  Uiso   1.00
C801   C     0.77748   0.66928   0.71792   0.00000  Uiso   1.00
C802   C     0.76481   0.60136   0.71389   0.00000  Uiso   1.00
H803   H     0.75262   0.60187   0.74088   0.00000  Uiso   1.00
C804   C     0.78001   0.63332   0.69876   0.00000  Uiso   1.00
C805   C     0.77379   0.53255   0.59797   0.00000  Uiso   1.00
H806   H     0.77275   0.55824   0.58335   0.00000  Uiso   1.00
H807   H     0.74070   0.67896   0.84039   0.00000  Uiso   1.00
C808   C     0.79547   0.63127   0.66354   0.00000  Uiso   1.00
H809   H     0.80768   0.65517   0.65098   0.00000  Uiso   1.00
C810   C     0.76424   0.56856   0.69388   0.00000  Uiso   1.00
H811   H     0.75177   0.54461   0.70608   0.00000  Uiso   1.00
C812   C     0.77849   0.56695   0.65811   0.00000  Uiso   1.00
C813   C     0.77654   0.53229   0.63649   0.00000  Uiso   1.00
C814   C     0.79476   0.59864   0.64355   0.00000  Uiso   1.00
H815   H     0.80719   0.59834   0.61669   0.00000  Uiso   1.00
C816   C     0.74785   0.52546   0.51874   0.00000  Uiso   1.00
H817   H     0.04501   0.23568   0.96611   0.00000  Uiso   1.00
O818   O     0.24684   0.67190   0.24516   0.00000  Uiso   1.00
O819   O     0.22221   0.69752   0.29490   0.00000  Uiso   1.00
C820   C     0.23528   0.66991   0.27811   0.00000  Uiso   1.00
C821   C     0.25288   0.60287   0.28323   0.00000  Uiso   1.00
H822   H     0.26443   0.60361   0.25596   0.00000  Uiso   1.00
C823   C     0.23692   0.63445   0.29843   0.00000  Uiso   1.00
C824   C     0.24205   0.53278   0.39900   0.00000  Uiso   1.00
H825   H     0.24236   0.55833   0.41389   0.00000  Uiso   1.00
H826   H     0.27421   0.67464   0.15975   0.00000  Uiso   1.00
C827   C     0.22215   0.63204   0.33392   0.00000  Uiso   1.00
H828   H     0.20922   0.65552   0.34652   0.00000  Uiso   1.00
C829   C     0.25427   0.56996   0.30322   0.00000  Uiso   1.00
H830   H     0.26695   0.54623   0.29083   0.00000  Uiso   1.00
C831   C     0.23994   0.56782   0.33898   0.00000  Uiso   1.00
C832   C     0.24144   0.53278   0.36032   0.00000  Uiso   1.00
C833   C     0.22346   0.59934   0.35374   0.00000  Uiso   1.00
H834   H     0.21081   0.59883   0.38047   0.00000  Uiso   1.00
C835   C     0.26005   0.52527   0.48062   0.00000  Uiso   1.00
H836   H     0.95192   0.30984   0.03110   0.00000  Uiso   1.00
O837   O     0.32460   0.24652   0.75405   0.00000  Uiso   1.00
O838   O     0.29805   0.29589   0.77846   0.00000  Uiso   1.00
C839   C     0.32611   0.27935   0.76609   0.00000  Uiso   1.00
C840   C     0.39390   0.28436   0.75191   0.00000  Uiso   1.00
H841   H     0.39371   0.25705   0.74044   0.00000  Uiso   1.00
C842   C     0.36155   0.29972   0.76605   0.00000  Uiso   1.00
C843   C     0.46407   0.39955   0.76760   0.00000  Uiso   1.00
H844   H     0.43882   0.41478   0.76515   0.00000  Uiso   1.00
H845   H     0.31209   0.15054   0.76520   0.00000  Uiso   1.00
C846   C     0.36322   0.33525   0.78080   0.00000  Uiso   1.00
H847   H     0.33908   0.34799   0.79232   0.00000  Uiso   1.00
C848   C     0.42691   0.30417   0.75243   0.00000  Uiso   1.00
H849   H     0.45128   0.29159   0.74125   0.00000  Uiso   1.00
C850   C     0.42838   0.33992   0.76686   0.00000  Uiso   1.00
C851   C     0.46360   0.36093   0.76763   0.00000  Uiso   1.00
C852   C     0.39602   0.35492   0.78136   0.00000  Uiso   1.00
H853   H     0.39593   0.38168   0.79396   0.00000  Uiso   1.00
C854   C     0.47171   0.47937   0.79086   0.00000  Uiso   1.00
H855   H     0.76795   0.03327   0.04535   0.00000  Uiso   1.00
O856   O     0.32633   0.75195   0.24355   0.00000  Uiso   1.00
O857   O     0.30185   0.70190   0.21835   0.00000  Uiso   1.00
C858   C     0.32903   0.71911   0.23176   0.00000  Uiso   1.00
C859   C     0.39598   0.71498   0.25006   0.00000  Uiso   1.00
H860   H     0.39476   0.74227   0.26151   0.00000  Uiso   1.00
C861   C     0.36480   0.69936   0.23369   0.00000  Uiso   1.00
C862   C     0.46652   0.59964   0.24294   0.00000  Uiso   1.00
H863   H     0.44088   0.58491   0.24376   0.00000  Uiso   1.00
H864   H     0.32272   0.83831   0.26820   0.00000  Uiso   1.00
C865   C     0.36782   0.66384   0.21910   0.00000  Uiso   1.00
H866   H     0.34468   0.65092   0.20587   0.00000  Uiso   1.00
C867   C     0.42906   0.69531   0.25213   0.00000  Uiso   1.00
H868   H     0.45246   0.70796   0.26516   0.00000  Uiso   1.00
C869   C     0.43171   0.65947   0.23815   0.00000  Uiso   1.00
C870   C     0.46669   0.63822   0.24074   0.00000  Uiso   1.00
C871   C     0.40066   0.64433   0.22115   0.00000  Uiso   1.00
H872   H     0.40167   0.61747   0.20878   0.00000  Uiso   1.00
C873   C     0.47372   0.51908   0.26501   0.00000  Uiso   1.00
H874   H     0.69947   0.96619   0.94941   0.00000  Uiso   1.00
O875   O     0.67224   0.24688   0.24375   0.00000  Uiso   1.00
O876   O     0.69727   0.29720   0.21969   0.00000  Uiso   1.00
C877   C     0.66988   0.27997   0.23266   0.00000  Uiso   1.00
C878   C     0.60285   0.28416   0.25064   0.00000  Uiso   1.00
H879   H     0.60385   0.25666   0.26160   0.00000  Uiso   1.00
C880   C     0.63424   0.29992   0.23480   0.00000  Uiso   1.00
C881   C     0.53262   0.39982   0.24362   0.00000  Uiso   1.00
H882   H     0.55826   0.41448   0.24536   0.00000  Uiso   1.00
H883   H     0.67554   0.16098   0.26872   0.00000  Uiso   1.00
C884   C     0.63151   0.33570   0.22083   0.00000  Uiso   1.00
H885   H     0.65483   0.34875   0.20805   0.00000  Uiso   1.00
C886   C     0.56983   0.30391   0.25272   0.00000  Uiso   1.00
H887   H     0.54626   0.29113   0.26531   0.00000  Uiso   1.00
C888   C     0.56741   0.33997   0.23927   0.00000  Uiso   1.00
C889   C     0.53242   0.36125   0.24170   0.00000  Uiso   1.00
C890   C     0.59871   0.35528   0.22286   0.00000  Uiso   1.00
H891   H     0.59795   0.38234   0.21091   0.00000  Uiso   1.00
C892   C     0.52582   0.48053   0.22454   0.00000  Uiso   1.00
H893   H     0.30902   0.03173   0.95138   0.00000  Uiso   1.00
O894   O     0.67080   0.75123   0.75962   0.00000  Uiso   1.00
O895   O     0.69788   0.70274   0.78554   0.00000  Uiso   1.00
C896   C     0.66936   0.71944   0.77430   0.00000  Uiso   1.00
C897   C     0.60129   0.71474   0.76244   0.00000  Uiso   1.00
H898   H     0.60145   0.74159   0.74994   0.00000  Uiso   1.00
C899   C     0.63357   0.69997   0.77730   0.00000  Uiso   1.00
C900   C     0.53265   0.59870   0.77527   0.00000  Uiso   1.00
H901   H     0.55828   0.58396   0.77446   0.00000  Uiso   1.00
H902   H     0.67782   0.84148   0.73468   0.00000  Uiso   1.00
C903   C     0.63195   0.66490   0.79317   0.00000  Uiso   1.00
H904   H     0.65610   0.65262   0.80515   0.00000  Uiso   1.00
C905   C     0.56856   0.69456   0.76269   0.00000  Uiso   1.00
H906   H     0.54435   0.70652   0.75051   0.00000  Uiso   1.00
C907   C     0.56730   0.65898   0.77750   0.00000  Uiso   1.00
C908   C     0.53256   0.63732   0.77671   0.00000  Uiso   1.00
C909   C     0.59938   0.64477   0.79333   0.00000  Uiso   1.00
H910   H     0.59944   0.61811   0.80618   0.00000  Uiso   1.00
C911   C     0.52528   0.51838   0.75281   0.00000  Uiso   1.00
H912   H     0.23626   0.96606   0.04510   0.00000  Uiso   1.00
In913  In    0.25071   0.28541   0.21126   0.00000  Uiso   1.00
O914   O     0.24907   0.31818   0.16801   0.00000  Uiso   1.00
In915  In    0.74881   0.71283   0.20951   0.00000  Uiso   1.00
O916   O     0.74546   0.67936   0.16672   0.00000  Uiso   1.00
In917  In    0.74690   0.28661   0.78250   0.00000  Uiso   1.00
O918   O     0.74349   0.32961   0.81549   0.00000  Uiso   1.00
In919  In    0.24898   0.71039   0.78404   0.00000  Uiso   1.00
O920   O     0.24547   0.66788   0.81786   0.00000  Uiso   1.00
In921  In    0.21173   0.25088   0.28469   0.00000  Uiso   1.00
O922   O     0.16841   0.24931   0.31740   0.00000  Uiso   1.00
In923  In    0.21291   0.74670   0.70931   0.00000  Uiso   1.00
O924   O     0.17952   0.74361   0.66661   0.00000  Uiso   1.00
In925  In    0.78652   0.74903   0.28287   0.00000  Uiso   1.00
O926   O     0.82951   0.75033   0.31604   0.00000  Uiso   1.00
In927  In    0.78446   0.24889   0.70992   0.00000  Uiso   1.00
O928   O     0.81835   0.24528   0.66748   0.00000  Uiso   1.00
In929  In    0.28530   0.21210   0.25033   0.00000  Uiso   1.00
O930   O     0.31850   0.16917   0.24850   0.00000  Uiso   1.00
In931  In    0.70977   0.21284   0.74636   0.00000  Uiso   1.00
O932   O     0.66733   0.17916   0.74292   0.00000  Uiso   1.00
In933  In    0.28654   0.78305   0.74658   0.00000  Uiso   1.00
O934   O     0.32917   0.81647   0.74284   0.00000  Uiso   1.00
In935  In    0.71365   0.78764   0.24664   0.00000  Uiso   1.00
O936   O     0.68043   0.83040   0.24268   0.00000  Uiso   1.00
In937  In    0.75050   0.71218   0.78303   0.00000  Uiso   1.00
O938   O     0.74878   0.66936   0.81638   0.00000  Uiso   1.00
In939  In    0.24679   0.28300   0.78619   0.00000  Uiso   1.00
O940   O     0.24312   0.31634   0.82890   0.00000  Uiso   1.00
In941  In    0.25024   0.71277   0.20947   0.00000  Uiso   1.00
O942   O     0.24847   0.67915   0.16689   0.00000  Uiso   1.00
In943  In    0.74869   0.28641   0.20963   0.00000  Uiso   1.00
O944   O     0.74502   0.31951   0.16658   0.00000  Uiso   1.00
In945  In    0.78601   0.75028   0.70961   0.00000  Uiso   1.00
O946   O     0.81948   0.74888   0.66687   0.00000  Uiso   1.00
In947  In    0.78631   0.25045   0.28303   0.00000  Uiso   1.00
O948   O     0.82910   0.24865   0.31643   0.00000  Uiso   1.00
In949  In    0.20963   0.24661   0.71254   0.00000  Uiso   1.00
O950   O     0.16713   0.24322   0.67895   0.00000  Uiso   1.00
In951  In    0.21228   0.74876   0.28326   0.00000  Uiso   1.00
O952   O     0.16931   0.74522   0.31650   0.00000  Uiso   1.00
In953  In    0.71159   0.78488   0.74692   0.00000  Uiso   1.00
O954   O     0.66844   0.81766   0.74354   0.00000  Uiso   1.00
In955  In    0.28496   0.78718   0.24672   0.00000  Uiso   1.00
O956   O     0.31791   0.83016   0.24282   0.00000  Uiso   1.00
In957  In    0.71353   0.21171   0.24683   0.00000  Uiso   1.00
O958   O     0.68053   0.16876   0.24326   0.00000  Uiso   1.00
In959  In    0.28431   0.21032   0.74871   0.00000  Uiso   1.00
O960   O     0.31810   0.16779   0.74519   0.00000  Uiso   1.00
N961   N     0.27831   0.15536  -0.00039   0.00000  Uiso   1.00
C962   C     0.27386   0.03805  -0.00125   0.00000  Uiso   1.00
C963   C     0.27539   0.07918  -0.00080   0.00000  Uiso   1.00
N964   N     0.73202   0.84331  -0.00391   0.00000  Uiso   1.00
C965   C     0.73395   0.96062  -0.00267   0.00000  Uiso   1.00
C966   C     0.73389   0.91951  -0.00289   0.00000  Uiso   1.00
N967   N     0.73057   0.15605  -0.00386   0.00000  Uiso   1.00
C968   C     0.73357   0.03873  -0.00266   0.00000  Uiso   1.00
C969   C     0.73312   0.07984  -0.00287   0.00000  Uiso   1.00
N970   N     0.27022   0.84265  -0.00416   0.00000  Uiso   1.00
C971   C     0.27121   0.95995  -0.00238   0.00000  Uiso   1.00
C972   C     0.27029   0.91886  -0.00291   0.00000  Uiso   1.00
N973   N    -0.00021   0.27960   0.15504   0.00000  Uiso   1.00
C974   C    -0.00106   0.27428   0.03775   0.00000  Uiso   1.00
C975   C    -0.00064   0.27614   0.07888   0.00000  Uiso   1.00
N976   N    -0.00039   0.73896   0.84176   0.00000  Uiso   1.00
C977   C    -0.00020   0.73668   0.95913   0.00000  Uiso   1.00
C978   C    -0.00034   0.73857   0.91805   0.00000  Uiso   1.00
N979   N    -0.00053   0.72291   0.15410   0.00000  Uiso   1.00
C980   C    -0.00045   0.73154   0.03710   0.00000  Uiso   1.00
C981   C    -0.00056   0.72854   0.07810   0.00000  Uiso   1.00
N982   N    -0.00392   0.26899   0.84237   0.00000  Uiso   1.00
C983   C    -0.00215   0.27100   0.95967   0.00000  Uiso   1.00
C984   C    -0.00267   0.26972   0.91858   0.00000  Uiso   1.00
N985   N     0.15613  -0.00025   0.27918   0.00000  Uiso   1.00
C986   C     0.03876  -0.00053   0.27717   0.00000  Uiso   1.00
C987   C     0.07991  -0.00041   0.27781   0.00000  Uiso   1.00
N988   N     0.84237  -0.00020   0.73909   0.00000  Uiso   1.00
C989   C     0.95981  -0.00112   0.74008   0.00000  Uiso   1.00
C990   C     0.91867  -0.00061   0.74073   0.00000  Uiso   1.00
N991   N     0.15504  -0.00399   0.73178   0.00000  Uiso   1.00
C992   C     0.03790  -0.00219   0.73786   0.00000  Uiso   1.00
C993   C     0.07895  -0.00272   0.73623   0.00000  Uiso   1.00
N994   N     0.84318  -0.00023   0.27744   0.00000  Uiso   1.00
C995   C     0.96057  -0.00047   0.27674   0.00000  Uiso   1.00
C996   C     0.91941  -0.00033   0.27687   0.00000  Uiso   1.00
N997   N     0.65604   0.76930   0.49619   0.00000  Uiso   1.00
C998   C     0.53872   0.76720   0.49762   0.00000  Uiso   1.00
C999   C     0.57983   0.76743   0.49732   0.00000  Uiso   1.00
N1000  N     0.34231   0.24023   0.49968   0.00000  Uiso   1.00
C1001  C     0.45975   0.24086   0.49881   0.00000  Uiso   1.00
C1002  C     0.41861   0.24157   0.49932   0.00000  Uiso   1.00
N1003  N     0.65497   0.23275   0.49589   0.00000  Uiso   1.00
C1004  C     0.53783   0.23861   0.49775   0.00000  Uiso   1.00
C1005  C     0.57888   0.23699   0.49720   0.00000  Uiso   1.00
N1006  N     0.34324   0.76802   0.49610   0.00000  Uiso   1.00
C1007  C     0.46060   0.76695   0.49760   0.00000  Uiso   1.00
C1008  C     0.41947   0.76687   0.49727   0.00000  Uiso   1.00
N1009  N     0.76128   0.49977   0.34194   0.00000  Uiso   1.00
C1010  C     0.76442   0.49938   0.45930   0.00000  Uiso   1.00
C1011  C     0.76244   0.49960   0.41822   0.00000  Uiso   1.00
N1012  N     0.23171   0.49603   0.65489   0.00000  Uiso   1.00
C1013  C     0.23825   0.49794   0.53778   0.00000  Uiso   1.00
C1014  C     0.23637   0.49736   0.57882   0.00000  Uiso   1.00
N1015  N     0.24127   0.50004   0.34227   0.00000  Uiso   1.00
C1016  C     0.24099   0.49909   0.45971   0.00000  Uiso   1.00
C1017  C     0.24200   0.49962   0.41858   0.00000  Uiso   1.00
N1018  N     0.77728   0.49954   0.65432   0.00000  Uiso   1.00
C1019  C     0.76932   0.49937   0.53728   0.00000  Uiso   1.00
C1020  C     0.77220   0.49946   0.57829   0.00000  Uiso   1.00
N1021  N     0.49950   0.65614   0.24005   0.00000  Uiso   1.00
C1022  C     0.49975   0.53884   0.24458   0.00000  Uiso   1.00
C1023  C     0.49957   0.57995   0.24380   0.00000  Uiso   1.00
N1024  N     0.49609   0.34254   0.76894   0.00000  Uiso   1.00
C1025  C     0.49794   0.45984   0.77052   0.00000  Uiso   1.00
C1026  C     0.49738   0.41875   0.76948   0.00000  Uiso   1.00
N1027  N     0.49985   0.65527   0.77729   0.00000  Uiso   1.00
C1028  C     0.49905   0.53794   0.77320   0.00000  Uiso   1.00
C1029  C     0.49946   0.57907   0.77469   0.00000  Uiso   1.00
N1030  N     0.49958   0.34338   0.24129   0.00000  Uiso   1.00
C1031  C     0.49977   0.46072   0.24487   0.00000  Uiso   1.00
C1032  C     0.49963   0.41961   0.24441   0.00000  Uiso   1.00
O1033  O     0.24211   0.24229   0.24160   0.00000  Uiso   1.00
O1034  O     0.75633   0.75642   0.23949   0.00000  Uiso   1.00
O1035  O     0.74042   0.25595   0.73934   0.00000  Uiso   1.00
O1036  O     0.25604   0.73979   0.73999   0.00000  Uiso   1.00
O1037  O     0.74248   0.74197   0.73945   0.00000  Uiso   1.00
O1038  O     0.24023   0.23970   0.75573   0.00000  Uiso   1.00
O1039  O     0.24215   0.75613   0.23956   0.00000  Uiso   1.00
O1040  O     0.75634   0.24276   0.23954   0.00000  Uiso   1.00
loop_
_geom_bond_atom_site_label_1
_geom_bond_atom_site_label_2
_geom_bond_distance
_geom_bond_site_symmetry_2
_ccdc_geom_bond_type
O1     C3      1.281   .     A
O1     In913   1.987   .     S
O2     C3      1.276   .     A
O2     In929   1.958   .     S
C3     C6      1.494   .     S
C4     H5      1.083   .     S
C4     C6      1.407   .     A
C4     C12     1.406   .     A
C6     C10     1.408   .     A
C7     H8      1.081   .     S
C7     C15     1.413   .     A
C7     C963    1.410   .     A
H9     O914    0.990   .     S
C10    H11     1.083   .     S
C10    C16     1.400   .     A
C12    H13     1.083   .     S
C12    C14     1.410   .     A
C14    C15     1.498   .     S
C14    C16     1.407   .     A
C15    N961    1.364   .     A
C16    H17     1.082   .     S
C18    C512    1.406   1_545 A
C18    C962    1.410   .     A
C18    H418    1.082   .     S
H19    C417    1.083   .     S
O20    C22     1.281   .     A
O20    In915   1.989   .     S
O21    C22     1.276   .     A
O21    In935   1.959   .     S
C22    C25     1.494   .     S
C23    H24     1.083   .     S
C23    C25     1.408   .     A
C23    C31     1.407   .     A
C25    C29     1.408   .     A
C26    H27     1.082   .     S
C26    C34     1.413   .     A
C26    C966    1.408   .     A
H28    O916    0.990   .     S
C29    H30     1.083   .     S
C29    C35     1.400   .     A
C31    H32     1.083   .     S
C31    C33     1.409   .     A
C33    C34     1.498   .     S
C33    C35     1.408   .     A
C34    N964    1.366   .     A
C35    H36     1.082   .     S
C37    C531    1.406   1_565 A
C37    C965    1.409   .     A
C37    H437    1.082   .     S
H38    C436    1.083   .     S
O39    C41     1.279   .     A
O39    In917   1.988   .     S
O40    C41     1.274   .     A
O40    In931   1.954   .     S
C41    C44     1.494   .     S
C42    H43     1.083   .     S
C42    C44     1.408   .     A
C42    C50     1.408   .     A
C44    C48     1.408   .     A
C45    H46     1.082   .     S
C45    C53     1.411   .     A
C45    C969    1.407   1_556 A
H47    O918    0.990   .     S
C48    H49     1.083   .     S
C48    C54     1.398   .     A
C50    H51     1.083   .     S
C50    C52     1.410   .     A
C52    C53     1.498   .     S
C52    C54     1.407   .     A
C53    N967    1.365   1_556 A
C54    H55     1.082   .     S
C56    C474    1.403   1_545 A
C56    C968    1.408   1_556 A
C56    H456    1.083   .     S
H57    C455    1.082   .     S
O58    C60     1.279   .     A
O58    In919   1.990   .     S
O59    C60     1.274   .     A
O59    In933   1.953   .     S
C60    C63     1.495   .     S
C61    H62     1.083   .     S
C61    C63     1.408   .     A
C61    C69     1.408   .     A
C63    C67     1.408   .     A
C64    H65     1.082   .     S
C64    C72     1.412   .     A
C64    C972    1.407   1_556 A
H66    O920    0.991   .     S
C67    H68     1.083   .     S
C67    C73     1.398   .     A
C69    H70     1.083   .     S
C69    C71     1.410   .     A
C71    C72     1.500   .     S
C71    C73     1.408   .     A
C72    N970    1.366   1_556 A
C73    H74     1.081   .     S
C75    C493    1.404   1_565 A
C75    C971    1.408   1_556 A
C75    H399    1.083   .     S
H76    C398    1.083   .     S
O77    C79     1.281   .     A
O77    In921   1.987   .     S
O78    C79     1.276   .     A
O78    In913   1.959   .     S
C79    C82     1.494   .     S
C80    H81     1.083   .     S
C80    C82     1.407   .     A
C80    C88     1.406   .     A
C82    C86     1.409   .     A
C83    H84     1.081   .     S
C83    C91     1.413   .     A
C83    C975    1.410   .     A
H85    O922    0.990   .     S
C86    H87     1.083   .     S
C86    C92     1.400   .     A
C88    H89     1.083   .     S
C88    C90     1.409   .     A
C90    C91     1.498   .     S
C90    C92     1.407   .     A
C91    N973    1.364   .     A
C92    H93     1.082   .     S
C94    C588    1.406   1_554 A
C94    C974    1.410   .     A
C94    H323    1.082   .     S
H95    C322    1.082   .     S
O96    C98     1.279   .     A
O96    In923   1.986   .     S
O97    C98     1.274   .     A
O97    In919   1.956   .     S
C98    C101    1.495   .     S
C99    H100    1.083   .     S
C99    C101    1.408   .     A
C99    C107    1.409   .     A
C101   C105    1.407   .     A
C102   H103    1.081   .     S
C102   C110    1.412   .     A
C102   C978    1.407   .     A
H104   O924    0.990   .     S
C105   H106    1.083   .     S
C105   C111    1.398   .     A
C107   H108    1.083   .     S
C107   C109    1.410   .     A
C109   C110    1.501   .     S
C109   C111    1.408   .     A
C110   N976    1.367   .     A
C111   H112    1.082   .     S
C113   C607    1.403   1_556 A
C113   C977    1.409   .     A
C113   H380    1.083   .     S
H114   C379    1.083   .     S
O115   C117    1.281   .     A
O115   In925   1.988   .     S
O116   C117    1.276   .     A
O116   In915   1.960   .     S
C117   C120    1.493   .     S
C118   H119    1.083   .     S
C118   C120    1.407   .     A
C118   C126    1.406   .     A
C120   C124    1.409   .     A
C121   H122    1.082   .     S
C121   C129    1.412   .     A
C121   C981    1.409   1_655 A
H123   O926    0.990   .     S
C124   H125    1.083   .     S
C124   C130    1.400   .     A
C126   H127    1.083   .     S
C126   C128    1.409   .     A
C128   C129    1.496   .     S
C128   C130    1.407   .     A
C129   N979    1.364   1_655 A
C130   H131    1.082   .     S
C132   C550    1.406   1_554 A
C132   C980    1.409   1_655 A
C132   H361    1.083   .     S
H133   C360    1.083   .     S
O134   C136    1.279   .     A
O134   In927   1.990   .     S
O135   C136    1.274   .     A
O135   In917   1.953   .     S
C136   C139    1.494   .     S
C137   H138    1.083   .     S
C137   C139    1.407   .     A
C137   C145    1.408   .     A
C139   C143    1.408   .     A
C140   H141    1.082   .     S
C140   C148    1.412   .     A
C140   C984    1.407   1_655 A
H142   O928    0.991   .     S
C143   H144    1.083   .     S
C143   C149    1.398   .     A
C145   H146    1.083   .     S
C145   C147    1.410   .     A
C147   C148    1.500   .     S
C147   C149    1.408   .     A
C148   N982    1.366   1_655 A
C149   H150    1.081   .     S
C151   C569    1.404   1_556 A
C151   C983    1.408   1_655 A
C151   H342    1.083   .     S
H152   C341    1.083   .     S
O153   C155    1.281   .     A
O153   In929   1.987   .     S
O154   C155    1.276   .     A
O154   In921   1.958   .     S
C155   C158    1.493   .     S
C156   H157    1.083   .     S
C156   C158    1.407   .     A
C156   C164    1.406   .     A
C158   C162    1.408   .     A
C159   H160    1.081   .     S
C159   C167    1.412   .     A
C159   C987    1.409   .     A
H161   O930    0.990   .     S
C162   H163    1.083   .     S
C162   C168    1.400   .     A
C164   H165    1.083   .     S
C164   C166    1.409   .     A
C166   C167    1.498   .     S
C166   C168    1.407   .     A
C167   N985    1.364   .     A
C168   H169    1.082   .     S
C170   C664    1.406   1_455 A
C170   C986    1.409   .     A
C170   H304    1.083   .     S
H171   C303    1.082   .     S
O172   C174    1.279   .     A
O172   In931   1.987   .     S
O173   C174    1.274   .     A
O173   In927   1.956   .     S
C174   C177    1.496   .     S
C175   H176    1.083   .     S
C175   C177    1.408   .     A
C175   C183    1.409   .     A
C177   C181    1.408   .     A
C178   H179    1.081   .     S
C178   C186    1.414   .     A
C178   C990    1.408   .     A
H180   O932    0.990   .     S
C181   H182    1.083   .     S
C181   C187    1.399   .     A
C183   H184    1.083   .     S
C183   C185    1.410   .     A
C185   C186    1.501   .     S
C185   C187    1.408   .     A
C186   N988    1.367   .     A
C187   H188    1.081   .     S
C189   C683    1.406   1_655 A
C189   C989    1.409   .     A
C189   H247    1.082   .     S
H190   C246    1.083   .     S
O191   C193    1.279   .     A
O191   In933   1.989   .     S
O192   C193    1.274   .     A
O192   In923   1.955   .     S
C193   C196    1.495   .     S
C194   H195    1.083   .     S
C194   C196    1.408   .     A
C194   C202    1.408   .     A
C196   C200    1.408   .     A
C197   H198    1.082   .     S
C197   C205    1.412   .     A
C197   C993    1.408   1_565 A
H199   O934    0.990   .     S
C200   H201    1.083   .     S
C200   C206    1.399   .     A
C202   H203    1.083   .     S
C202   C204    1.410   .     A
C204   C205    1.499   .     S
C204   C206    1.407   .     A
C205   N991    1.365   1_565 A
C206   H207    1.082   .     S
C208   C626    1.403   1_455 A
C208   C992    1.408   1_565 A
C208   H266    1.083   .     S
H209   C265    1.083   .     S
O210   C212    1.281   .     A
O210   In935   1.989   .     S
O211   C212    1.276   .     A
O211   In925   1.956   .     S
C212   C215    1.493   .     S
C213   H214    1.083   .     S
C213   C215    1.407   .     A
C213   C221    1.406   .     A
C215   C219    1.408   .     A
C216   H217    1.082   .     S
C216   C224    1.412   .     A
C216   C996    1.409   1_565 A
H218   O936    0.990   .     S
C219   H220    1.083   .     S
C219   C225    1.399   .     A
C221   H222    1.083   .     S
C221   C223    1.410   .     A
C223   C224    1.497   .     S
C223   C225    1.407   .     A
C224   N994    1.364   1_565 A
C225   H226    1.082   .     S
C227   C645    1.405   1_655 A
C227   C995    1.409   1_565 A
C227   H285    1.083   .     S
H228   C284    1.083   .     S
O229   C231    1.279   .     A
O229   In925   1.989   .     S
O230   C231    1.274   .     A
O230   In935   1.952   .     S
C231   C234    1.494   .     S
C232   H233    1.083   .     S
C232   C234    1.408   .     A
C232   C240    1.408   .     A
C234   C238    1.408   .     A
C235   H236    1.082   .     S
C235   C243    1.411   .     A
C235   C999    1.407   .     A
H237   O926    0.990   .     S
C238   H239    1.083   .     S
C238   C244    1.398   .     A
C240   H241    1.083   .     S
C240   C242    1.410   .     A
C242   C243    1.498   .     S
C242   C244    1.407   .     A
C243   N997    1.365   .     A
C244   H245    1.082   .     S
C246   C740    1.403   .     A
C246   C998    1.408   .     A
O248   C250    1.279   .     A
O248   In921   1.990   .     S
O249   C250    1.274   .     A
O249   In929   1.954   .     S
C250   C253    1.495   .     S
C251   H252    1.083   .     S
C251   C253    1.409   .     A
C251   C259    1.409   .     A
C253   C257    1.407   .     A
C254   H255    1.082   .     S
C254   C262    1.411   .     A
C254   C1002   1.406   .     A
H256   O922    0.990   .     S
C257   H258    1.083   .     S
C257   C263    1.397   .     A
C259   H260    1.083   .     S
C259   C261    1.410   .     A
C261   C262    1.499   .     S
C261   C263    1.407   .     A
C262   N1000   1.366   .     A
C263   H264    1.082   .     S
C265   C759    1.403   .     A
C265   C1001   1.409   .     A
O267   C269    1.280   .     A
O267   In927   1.988   .     S
O268   C269    1.276   .     A
O268   In931   1.958   .     S
C269   C272    1.493   .     S
C270   H271    1.083   .     S
C270   C272    1.408   .     A
C270   C278    1.406   .     A
C272   C276    1.408   .     A
C273   H274    1.082   .     S
C273   C281    1.412   .     A
C273   C1005   1.407   .     A
H275   O928    0.990   .     S
C276   H277    1.083   .     S
C276   C282    1.399   .     A
C278   H279    1.083   .     S
C278   C280    1.409   .     A
C280   C281    1.497   .     S
C280   C282    1.407   .     A
C281   N1003   1.365   .     A
C282   H283    1.082   .     S
C284   C702    1.406   .     A
C284   C1004   1.409   .     A
O286   C288    1.281   .     A
O286   In923   1.989   .     S
O287   C288    1.276   .     A
O287   In933   1.957   .     S
C288   C291    1.494   .     S
C289   H290    1.083   .     S
C289   C291    1.408   .     A
C289   C297    1.407   .     A
C291   C295    1.408   .     A
C292   H293    1.081   .     S
C292   C300    1.413   .     A
C292   C1008   1.408   .     A
H294   O924    0.990   .     S
C295   H296    1.083   .     S
C295   C301    1.400   .     A
C297   H298    1.083   .     S
C297   C299    1.409   .     A
C299   C300    1.498   .     S
C299   C301    1.407   .     A
C300   N1006   1.365   .     A
C301   H302    1.082   .     S
C303   C721    1.406   .     A
C303   C1007   1.409   .     A
O305   C307    1.279   .     A
O305   In915   1.991   .     S
O306   C307    1.274   .     A
O306   In925   1.954   .     S
C307   C310    1.495   .     S
C308   H309    1.083   .     S
C308   C310    1.408   .     A
C308   C316    1.409   .     A
C310   C314    1.408   .     A
C311   H312    1.081   .     S
C311   C319    1.413   .     A
C311   C1011   1.407   .     A
H313   O916    0.991   .     S
C314   H315    1.083   .     S
C314   C320    1.398   .     A
C316   H317    1.083   .     S
C316   C318    1.410   .     A
C318   C319    1.500   .     S
C318   C320    1.408   .     A
C319   N1009   1.367   .     A
C320   H321    1.081   .     S
C322   C816    1.405   .     A
C322   C1010   1.409   .     A
O324   C326    1.281   .     A
O324   In919   1.988   .     S
O325   C326    1.276   .     A
O325   In923   1.959   .     S
C326   C329    1.494   .     S
C327   H328    1.083   .     S
C327   C329    1.408   .     A
C327   C335    1.407   .     A
C329   C333    1.408   .     A
C330   H331    1.082   .     S
C330   C338    1.412   .     A
C330   C1014   1.407   .     A
H332   O920    0.990   .     S
C333   H334    1.083   .     S
C333   C339    1.399   .     A
C335   H336    1.083   .     S
C335   C337    1.409   .     A
C337   C338    1.496   .     S
C337   C339    1.407   .     A
C338   N1012   1.365   .     A
C339   H340    1.082   .     S
C341   C835    1.406   .     A
C341   C1013   1.409   .     A
O343   C345    1.279   .     A
O343   In913   1.989   .     S
O344   C345    1.274   .     A
O344   In921   1.954   .     S
C345   C348    1.495   .     S
C346   H347    1.083   .     S
C346   C348    1.409   .     A
C346   C354    1.409   .     A
C348   C352    1.407   .     A
C349   H350    1.082   .     S
C349   C357    1.411   .     A
C349   C1017   1.406   .     A
H351   O914    0.990   .     S
C352   H353    1.083   .     S
C352   C358    1.397   .     A
C354   H355    1.083   .     S
C354   C356    1.410   .     A
C356   C357    1.499   .     S
C356   C358    1.407   .     A
C357   N1015   1.366   .     A
C358   H359    1.082   .     S
C360   C778    1.403   .     A
C360   C1016   1.409   .     A
O362   C364    1.282   .     A
O362   In917   1.989   .     S
O363   C364    1.276   .     A
O363   In927   1.957   .     S
C364   C367    1.493   .     S
C365   H366    1.083   .     S
C365   C367    1.407   .     A
C365   C373    1.406   .     A
C367   C371    1.409   .     A
C368   H369    1.082   .     S
C368   C376    1.411   .     A
C368   C1020   1.409   .     A
H370   O918    0.990   .     S
C371   H372    1.083   .     S
C371   C377    1.399   .     A
C373   H374    1.083   .     S
C373   C375    1.409   .     A
C375   C376    1.495   .     S
C375   C377    1.406   .     A
C376   N1018   1.363   .     A
C377   H378    1.082   .     S
C379   C797    1.404   .     A
C379   C1019   1.408   .     A
O381   C383    1.279   .     A
O381   In935   1.987   .     S
O382   C383    1.274   .     A
O382   In915   1.956   .     S
C383   C386    1.496   .     S
C384   H385    1.083   .     S
C384   C386    1.409   .     A
C384   C392    1.409   .     A
C386   C390    1.408   .     A
C387   H388    1.081   .     S
C387   C395    1.412   .     A
C387   C1023   1.407   .     A
H389   O936    0.990   .     S
C390   H391    1.083   .     S
C390   C396    1.398   .     A
C392   H393    1.083   .     S
C392   C394    1.410   .     A
C394   C395    1.500   .     S
C394   C396    1.408   .     A
C395   N1021   1.367   .     A
C396   H397    1.082   .     S
C398   C892    1.403   .     A
C398   C1022   1.408   .     A
O400   C402    1.281   .     A
O400   In931   1.989   .     S
O401   C402    1.276   .     A
O401   In917   1.957   .     S
C402   C405    1.494   .     S
C403   H404    1.083   .     S
C403   C405    1.408   .     A
C403   C411    1.407   .     A
C405   C409    1.408   .     A
C406   H407    1.082   .     S
C406   C414    1.412   .     A
C406   C1026   1.407   .     A
H408   O932    0.990   .     S
C409   H410    1.083   .     S
C409   C415    1.399   .     A
C411   H412    1.083   .     S
C411   C413    1.409   .     A
C413   C414    1.498   .     S
C413   C415    1.407   .     A
C414   N1024   1.365   .     A
C415   H416    1.082   .     S
C417   C911    1.406   .     A
C417   C1025   1.409   .     A
O419   C421    1.282   .     A
O419   In933   1.989   .     S
O420   C421    1.276   .     A
O420   In919   1.958   .     S
C421   C424    1.493   .     S
C422   H423    1.083   .     S
C422   C424    1.407   .     A
C422   C430    1.406   .     A
C424   C428    1.408   .     A
C425   H426    1.082   .     S
C425   C433    1.411   .     A
C425   C1029   1.409   .     A
H427   O934    0.990   .     S
C428   H429    1.083   .     S
C428   C434    1.399   .     A
C430   H431    1.083   .     S
C430   C432    1.409   .     A
C432   C433    1.495   .     S
C432   C434    1.406   .     A
C433   N1027   1.363   .     A
C434   H435    1.082   .     S
C436   C854    1.404   .     A
C436   C1028   1.409   .     A
O438   C440    1.279   .     A
O438   In929   1.990   .     S
O439   C440    1.274   .     A
O439   In913   1.955   .     S
C440   C443    1.495   .     S
C441   H442    1.083   .     S
C441   C443    1.408   .     A
C441   C449    1.409   .     A
C443   C447    1.408   .     A
C444   H445    1.081   .     S
C444   C452    1.413   .     A
C444   C1032   1.407   .     A
H446   O930    0.990   .     S
C447   H448    1.083   .     S
C447   C453    1.398   .     A
C449   H450    1.083   .     S
C449   C451    1.410   .     A
C451   C452    1.499   .     S
C451   C453    1.407   .     A
C452   N1030   1.366   .     A
C453   H454    1.082   .     S
C455   C873    1.406   .     A
C455   C1031   1.409   .     A
O457   C459    1.280   .     A
O457   In937   1.989   .     S
O458   C459    1.274   .     A
O458   In953   1.953   .     S
C459   C462    1.494   .     S
C460   H461    1.083   .     S
C460   C462    1.408   .     A
C460   C468    1.408   .     A
C462   C466    1.408   .     A
C463   H464    1.082   .     S
C463   C471    1.411   .     A
C463   C966    1.407   1_556 A
H465   O938    0.990   .     S
C466   H467    1.083   .     S
C466   C472    1.398   .     A
C468   H469    1.083   .     S
C468   C470    1.410   .     A
C470   C471    1.498   .     S
C470   C472    1.407   .     A
C471   N964    1.365   1_556 A
C472   H473    1.082   .     S
C474   C56     1.403   1_565 A
C474   C965    1.408   1_556 A
C474   H874    1.083   .     S
H475   C873    1.082   .     S
O476   C478    1.282   .     A
O476   In939   1.990   .     S
O477   C478    1.276   .     A
O477   In959   1.957   .     S
C478   C481    1.493   .     S
C479   H480    1.083   .     S
C479   C481    1.407   .     A
C479   C487    1.406   .     A
C481   C485    1.408   .     A
C482   H483    1.082   .     S
C482   C490    1.410   .     A
C482   C963    1.408   1_556 A
H484   O940    0.990   .     S
C485   H486    1.083   .     S
C485   C491    1.399   .     A
C487   H488    1.083   .     S
C487   C489    1.409   .     A
C489   C490    1.495   .     S
C489   C491    1.406   .     A
C490   N961    1.363   1_556 A
C491   H492    1.082   .     S
C493   C75     1.404   1_545 A
C493   C962    1.409   1_556 A
C493   H893    1.083   .     S
H494   C892    1.083   .     S
O495   C497    1.281   .     A
O495   In941   1.988   .     S
O496   C497    1.276   .     A
O496   In955   1.959   .     S
C497   C500    1.494   .     S
C498   H499    1.083   .     S
C498   C500    1.408   .     A
C498   C506    1.407   .     A
C500   C504    1.408   .     A
C501   H502    1.082   .     S
C501   C509    1.412   .     A
C501   C972    1.407   .     A
H503   O942    0.990   .     S
C504   H505    1.083   .     S
C504   C510    1.399   .     A
C506   H507    1.083   .     S
C506   C508    1.409   .     A
C508   C509    1.498   .     S
C508   C510    1.407   .     A
C509   N970    1.365   .     A
C510   H511    1.082   .     S
C512   C18     1.406   1_565 A
C512   C971    1.409   .     A
C512   H912    1.083   .     S
H513   C911    1.082   .     S
O514   C516    1.281   .     A
O514   In943   1.990   .     S
O515   C516    1.276   .     A
O515   In957   1.959   .     S
C516   C519    1.494   .     S
C517   H518    1.083   .     S
C517   C519    1.408   .     A
C517   C525    1.407   .     A
C519   C523    1.408   .     A
C520   H521    1.081   .     S
C520   C528    1.413   .     A
C520   C969    1.408   .     A
H522   O944    0.990   .     S
C523   H524    1.083   .     S
C523   C529    1.400   .     A
C525   H526    1.083   .     S
C525   C527    1.409   .     A
C527   C528    1.498   .     S
C527   C529    1.407   .     A
C528   N967    1.366   .     A
C529   H530    1.082   .     S
C531   C37     1.406   1_545 A
C531   C968    1.409   .     A
C531   H855    1.083   .     S
H532   C854    1.083   .     S
O533   C535    1.280   .     A
O533   In945   1.991   .     S
O534   C535    1.274   .     A
O534   In937   1.955   .     S
C535   C538    1.496   .     S
C536   H537    1.083   .     S
C536   C538    1.408   .     A
C536   C544    1.409   .     A
C538   C542    1.408   .     A
C539   H540    1.081   .     S
C539   C547    1.413   .     A
C539   C978    1.407   1_655 A
H541   O946    0.990   .     S
C542   H543    1.083   .     S
C542   C548    1.398   .     A
C544   H545    1.083   .     S
C544   C546    1.410   .     A
C546   C547    1.500   .     S
C546   C548    1.408   .     A
C547   N976    1.367   1_655 A
C548   H549    1.081   .     S
C550   C132    1.406   1_556 A
C550   C977    1.409   1_655 A
C550   H779    1.083   .     S
H551   C778    1.083   .     S
O552   C554    1.281   .     A
O552   In947   1.988   .     S
O553   C554    1.276   .     A
O553   In943   1.960   .     S
C554   C557    1.493   .     S
C555   H556    1.083   .     S
C555   C557    1.408   .     A
C555   C563    1.406   .     A
C557   C561    1.408   .     A
C558   H559    1.082   .     S
C558   C566    1.411   .     A
C558   C975    1.409   1_655 A
H560   O948    0.990   .     S
C561   H562    1.083   .     S
C561   C567    1.399   .     A
C563   H564    1.083   .     S
C563   C565    1.409   .     A
C565   C566    1.496   .     S
C565   C567    1.407   .     A
C566   N973    1.363   1_655 A
C567   H568    1.082   .     S
C569   C151    1.404   1_554 A
C569   C974    1.409   1_655 A
C569   H836    1.083   .     S
H570   C835    1.082   .     S
O571   C573    1.281   .     A
O571   In949   1.989   .     S
O572   C573    1.276   .     A
O572   In939   1.957   .     S
C573   C576    1.494   .     S
C574   H575    1.083   .     S
C574   C576    1.408   .     A
C574   C582    1.407   .     A
C576   C580    1.408   .     A
C577   H578    1.082   .     S
C577   C585    1.412   .     A
C577   C984    1.407   .     A
H579   O950    0.990   .     S
C580   H581    1.083   .     S
C580   C586    1.399   .     A
C582   H583    1.083   .     S
C582   C584    1.409   .     A
C584   C585    1.498   .     S
C584   C586    1.407   .     A
C585   N982    1.365   .     A
C586   H587    1.082   .     S
C588   C94     1.406   1_556 A
C588   C983    1.409   .     A
C588   H817    1.083   .     S
H589   C816    1.082   .     S
O590   C592    1.281   .     A
O590   In951   1.987   .     S
O591   C592    1.276   .     A
O591   In941   1.958   .     S
C592   C595    1.493   .     S
C593   H594    1.083   .     S
C593   C595    1.407   .     A
C593   C601    1.406   .     A
C595   C599    1.408   .     A
C596   H597    1.082   .     S
C596   C604    1.411   .     A
C596   C981    1.409   .     A
H598   O952    0.990   .     S
C599   H600    1.083   .     S
C599   C605    1.399   .     A
C601   H602    1.083   .     S
C601   C603    1.409   .     A
C603   C604    1.496   .     S
C603   C605    1.407   .     A
C604   N979    1.364   .     A
C605   H606    1.082   .     S
C607   C113    1.403   1_554 A
C607   C980    1.408   .     A
C607   H798    1.083   .     S
H608   C797    1.083   .     S
O609   C611    1.279   .     A
O609   In953   1.989   .     S
O610   C611    1.274   .     A
O610   In945   1.955   .     S
C611   C614    1.495   .     S
C612   H613    1.083   .     S
C612   C614    1.409   .     A
C612   C620    1.409   .     A
C614   C618    1.407   .     A
C615   H616    1.082   .     S
C615   C623    1.411   .     A
C615   C990    1.406   1_565 A
H617   O954    0.990   .     S
C618   H619    1.083   .     S
C618   C624    1.397   .     A
C620   H621    1.083   .     S
C620   C622    1.410   .     A
C622   C623    1.499   .     S
C622   C624    1.407   .     A
C623   N988    1.366   1_565 A
C624   H625    1.082   .     S
C626   C208    1.403   1_655 A
C626   C989    1.409   1_565 A
C626   H760    1.083   .     S
H627   C759    1.083   .     S
O628   C630    1.282   .     A
O628   In955   1.991   .     S
O629   C630    1.276   .     A
O629   In951   1.959   .     S
C630   C633    1.494   .     S
C631   H632    1.083   .     S
C631   C633    1.407   .     A
C631   C639    1.407   .     A
C633   C637    1.409   .     A
C634   H635    1.082   .     S
C634   C642    1.412   .     A
C634   C987    1.409   1_565 A
H636   O956    0.990   .     S
C637   H638    1.083   .     S
C637   C643    1.400   .     A
C639   H640    1.083   .     S
C639   C641    1.409   .     A
C641   C642    1.497   .     S
C641   C643    1.407   .     A
C642   N985    1.364   1_565 A
C643   H644    1.082   .     S
C645   C227    1.405   1_455 A
C645   C986    1.409   1_565 A
C645   H703    1.083   .     S
H646   C702    1.082   .     S
O647   C649    1.281   .     A
O647   In957   1.989   .     S
O648   C649    1.276   .     A
O648   In947   1.956   .     S
C649   C652    1.494   .     S
C650   H651    1.083   .     S
C650   C652    1.407   .     A
C650   C658    1.406   .     A
C652   C656    1.409   .     A
C653   H654    1.081   .     S
C653   C661    1.413   .     A
C653   C996    1.409   .     A
H655   O958    0.990   .     S
C656   H657    1.083   .     S
C656   C662    1.400   .     A
C658   H659    1.083   .     S
C658   C660    1.410   .     A
C660   C661    1.497   .     S
C660   C662    1.407   .     A
C661   N994    1.364   .     A
C662   H663    1.082   .     S
C664   C170    1.406   1_655 A
C664   C995    1.409   .     A
C664   H722    1.082   .     S
H665   C721    1.082   .     S
O666   C668    1.281   .     A
O666   In959   1.989   .     S
O667   C668    1.276   .     A
O667   In949   1.959   .     S
C668   C671    1.494   .     S
C669   H670    1.083   .     S
C669   C671    1.408   .     A
C669   C677    1.407   .     A
C671   C675    1.408   .     A
C672   H673    1.082   .     S
C672   C680    1.412   .     A
C672   C993    1.407   .     A
H674   O960    0.990   .     S
C675   H676    1.083   .     S
C675   C681    1.399   .     A
C677   H678    1.083   .     S
C677   C679    1.409   .     A
C679   C680    1.497   .     S
C679   C681    1.407   .     A
C680   N991    1.365   .     A
C681   H682    1.082   .     S
C683   C189    1.406   1_455 A
C683   C992    1.409   .     A
C683   H741    1.083   .     S
H684   C740    1.083   .     S
O685   C687    1.279   .     A
O685   In949   1.986   .     S
O686   C687    1.274   .     A
O686   In959   1.956   .     S
C687   C690    1.495   .     S
C688   H689    1.083   .     S
C688   C690    1.408   .     A
C688   C696    1.409   .     A
C690   C694    1.408   .     A
C691   H692    1.081   .     S
C691   C699    1.414   .     A
C691   C1002   1.408   .     A
H693   O950    0.990   .     S
C694   H695    1.083   .     S
C694   C700    1.399   .     A
C696   H697    1.083   .     S
C696   C698    1.410   .     A
C698   C699    1.501   .     S
C698   C700    1.408   .     A
C699   N1000   1.367   .     A
C700   H701    1.081   .     S
C702   C1001   1.409   .     A
O704   C706    1.281   .     A
O704   In945   1.987   .     S
O705   C706    1.276   .     A
O705   In953   1.959   .     S
C706   C709    1.494   .     S
C707   H708    1.083   .     S
C707   C709    1.408   .     A
C707   C715    1.406   .     A
C709   C713    1.408   .     A
C710   H711    1.082   .     S
C710   C718    1.413   .     A
C710   C999    1.408   .     A
H712   O946    0.990   .     S
C713   H714    1.083   .     S
C713   C719    1.400   .     A
C715   H716    1.083   .     S
C715   C717    1.409   .     A
C717   C718    1.498   .     S
C717   C719    1.407   .     A
C718   N997    1.366   .     A
C719   H720    1.082   .     S
C721   C998    1.409   .     A
O723   C725    1.279   .     A
O723   In951   1.989   .     S
O724   C725    1.274   .     A
O724   In955   1.952   .     S
C725   C728    1.493   .     S
C726   H727    1.083   .     S
C726   C728    1.408   .     A
C726   C734    1.408   .     A
C728   C732    1.408   .     A
C729   H730    1.082   .     S
C729   C737    1.411   .     A
C729   C1008   1.407   .     A
H731   O952    0.991   .     S
C732   H733    1.083   .     S
C732   C738    1.398   .     A
C734   H735    1.083   .     S
C734   C736    1.410   .     A
C736   C737    1.498   .     S
C736   C738    1.407   .     A
C737   N1006   1.365   .     A
C738   H739    1.082   .     S
C740   C1007   1.409   .     A
O742   C744    1.280   .     A
O742   In947   1.989   .     S
O743   C744    1.274   .     A
O743   In957   1.953   .     S
C744   C747    1.494   .     S
C745   H746    1.083   .     S
C745   C747    1.408   .     A
C745   C753    1.408   .     A
C747   C751    1.408   .     A
C748   H749    1.082   .     S
C748   C756    1.412   .     A
C748   C1005   1.407   .     A
H750   O948    0.990   .     S
C751   H752    1.083   .     S
C751   C757    1.398   .     A
C753   H754    1.083   .     S
C753   C755    1.410   .     A
C755   C756    1.498   .     S
C755   C757    1.407   .     A
C756   N1003   1.365   .     A
C757   H758    1.082   .     S
C759   C1004   1.408   .     A
O761   C763    1.280   .     A
O761   In939   1.988   .     S
O762   C763    1.274   .     A
O762   In949   1.954   .     S
C763   C766    1.495   .     S
C764   H765    1.083   .     S
C764   C766    1.408   .     A
C764   C772    1.408   .     A
C766   C770    1.408   .     A
C767   H768    1.082   .     S
C767   C775    1.412   .     A
C767   C1014   1.408   .     A
H769   O940    0.990   .     S
C770   H771    1.083   .     S
C770   C776    1.399   .     A
C772   H773    1.083   .     S
C772   C774    1.410   .     A
C774   C775    1.499   .     S
C774   C776    1.407   .     A
C775   N1012   1.365   .     A
C776   H777    1.082   .     S
C778   C1013   1.408   .     A
O780   C782    1.279   .     A
O780   In943   1.990   .     S
O781   C782    1.274   .     A
O781   In947   1.954   .     S
C782   C785    1.495   .     S
C783   H784    1.083   .     S
C783   C785    1.408   .     A
C783   C791    1.409   .     A
C785   C789    1.407   .     A
C786   H787    1.081   .     S
C786   C794    1.412   .     A
C786   C1011   1.406   .     A
H788   O944    0.991   .     S
C789   H790    1.083   .     S
C789   C795    1.398   .     A
C791   H792    1.083   .     S
C791   C793    1.410   .     A
C793   C794    1.500   .     S
C793   C795    1.408   .     A
C794   N1009   1.366   .     A
C795   H796    1.082   .     S
C797   C1010   1.409   .     A
O799   C801    1.281   .     A
O799   In937   1.986   .     S
O800   C801    1.276   .     A
O800   In945   1.957   .     S
C801   C804    1.492   .     S
C802   H803    1.083   .     S
C802   C804    1.407   .     A
C802   C810    1.405   .     A
C804   C808    1.408   .     A
C805   H806    1.082   .     S
C805   C813    1.412   .     A
C805   C1020   1.409   .     A
H807   O938    0.990   .     S
C808   H809    1.083   .     S
C808   C814    1.399   .     A
C810   H811    1.083   .     S
C810   C812    1.409   .     A
C812   C813    1.495   .     S
C812   C814    1.407   .     A
C813   N1018   1.364   .     A
C814   H815    1.082   .     S
C816   C1019   1.409   .     A
O818   C820    1.279   .     A
O818   In941   1.987   .     S
O819   C820    1.274   .     A
O819   In951   1.955   .     S
C820   C823    1.496   .     S
C821   H822    1.083   .     S
C821   C823    1.408   .     A
C821   C829    1.409   .     A
C823   C827    1.408   .     A
C824   H825    1.081   .     S
C824   C832    1.414   .     A
C824   C1017   1.408   .     A
H826   O942    0.990   .     S
C827   H828    1.083   .     S
C827   C833    1.399   .     A
C829   H830    1.083   .     S
C829   C831    1.410   .     A
C831   C832    1.501   .     S
C831   C833    1.408   .     A
C832   N1015   1.367   .     A
C833   H834    1.081   .     S
C835   C1016   1.409   .     A
O837   C839    1.279   .     A
O837   In959   1.990   .     S
O838   C839    1.274   .     A
O838   In939   1.953   .     S
C839   C842    1.494   .     S
C840   H841    1.083   .     S
C840   C842    1.407   .     A
C840   C848    1.408   .     A
C842   C846    1.408   .     A
C843   H844    1.082   .     S
C843   C851    1.412   .     A
C843   C1026   1.407   .     A
H845   O960    0.991   .     S
C846   H847    1.083   .     S
C846   C852    1.398   .     A
C848   H849    1.083   .     S
C848   C850    1.410   .     A
C850   C851    1.500   .     S
C850   C852    1.408   .     A
C851   N1024   1.366   .     A
C852   H853    1.081   .     S
C854   C1025   1.408   .     A
O856   C858    1.279   .     A
O856   In955   1.990   .     S
O857   C858    1.274   .     A
O857   In941   1.955   .     S
C858   C861    1.496   .     S
C859   H860    1.083   .     S
C859   C861    1.408   .     A
C859   C867    1.409   .     A
C861   C865    1.408   .     A
C862   H863    1.081   .     S
C862   C870    1.413   .     A
C862   C1023   1.407   .     A
H864   O956    0.990   .     S
C865   H866    1.083   .     S
C865   C871    1.398   .     A
C867   H868    1.083   .     S
C867   C869    1.410   .     A
C869   C870    1.499   .     S
C869   C871    1.407   .     A
C870   N1021   1.367   .     A
C871   H872    1.082   .     S
C873   C1022   1.409   .     A
O875   C877    1.279   .     A
O875   In957   1.986   .     S
O876   C877    1.274   .     A
O876   In943   1.956   .     S
C877   C880    1.495   .     S
C878   H879    1.083   .     S
C878   C880    1.408   .     A
C878   C886    1.409   .     A
C880   C884    1.408   .     A
C881   H882    1.082   .     S
C881   C889    1.412   .     A
C881   C1032   1.407   .     A
H883   O958    0.990   .     S
C884   H885    1.083   .     S
C884   C890    1.398   .     A
C886   H887    1.083   .     S
C886   C888    1.410   .     A
C888   C889    1.500   .     S
C888   C890    1.408   .     A
C889   N1030   1.367   .     A
C890   H891    1.082   .     S
C892   C1031   1.409   .     A
O894   C896    1.281   .     A
O894   In953   1.988   .     S
O895   C896    1.276   .     A
O895   In937   1.957   .     S
C896   C899    1.493   .     S
C897   H898    1.083   .     S
C897   C899    1.407   .     A
C897   C905    1.406   .     A
C899   C903    1.409   .     A
C900   H901    1.081   .     S
C900   C908    1.413   .     A
C900   C1029   1.410   .     A
H902   O954    0.990   .     S
C903   H904    1.083   .     S
C903   C909    1.400   .     A
C905   H906    1.083   .     S
C905   C907    1.409   .     A
C907   C908    1.497   .     S
C907   C909    1.407   .     A
C908   N1027   1.364   .     A
C909   H910    1.082   .     S
C911   C1028   1.410   .     A
In913  O914    1.985   .     S
In913  O1033   1.953   .     S
In915  O916    1.990   .     S
In915  O1034   1.954   .     S
In917  O918    1.985   .     S
In917  O1035   1.950   .     S
In919  O920    1.990   .     S
In919  O1036   1.953   .     S
In921  O922    1.985   .     S
In921  O1033   1.953   .     S
In923  O924    1.985   .     S
In923  O1036   1.952   .     S
In925  O926    1.985   .     S
In925  O1034   1.951   .     S
In927  O928    1.990   .     S
In927  O1035   1.953   .     S
In929  O930    1.985   .     S
In929  O1033   1.953   .     S
In931  O932    1.985   .     S
In931  O1035   1.951   .     S
In933  O934    1.985   .     S
In933  O1036   1.950   .     S
In935  O936    1.985   .     S
In935  O1034   1.951   .     S
In937  O938    1.985   .     S
In937  O1037   1.952   .     S
In939  O940    1.985   .     S
In939  O1038   1.950   .     S
In941  O942    1.985   .     S
In941  O1039   1.952   .     S
In943  O944    1.990   .     S
In943  O1040   1.954   .     S
In945  O946    1.985   .     S
In945  O1037   1.953   .     S
In947  O948    1.986   .     S
In947  O1040   1.951   .     S
In949  O950    1.985   .     S
In949  O1038   1.951   .     S
In951  O952    1.990   .     S
In951  O1039   1.954   .     S
In953  O954    1.985   .     S
In953  O1037   1.952   .     S
In955  O956    1.985   .     S
In955  O1039   1.951   .     S
In957  O958    1.985   .     S
In957  O1040   1.951   .     S
In959  O960    1.990   .     S
In959  O1038   1.954   .     S
N961   C490    1.363   1_554 A
C962   C493    1.409   1_554 A
C962   C963    1.505   .     S
C963   C482    1.408   1_554 A
N964   C471    1.365   1_554 A
C965   C474    1.408   1_554 A
C965   C966    1.503   .     S
C966   C463    1.407   1_554 A
N967   C53     1.365   1_554 A
C968   C56     1.408   1_554 A
C968   C969    1.503   .     S
C969   C45     1.407   1_554 A
N970   C72     1.366   1_554 A
C971   C75     1.408   1_554 A
C971   C972    1.503   .     S
C972   C64     1.407   1_554 A
N973   C566    1.363   1_455 A
C974   C569    1.409   1_455 A
C974   C975    1.505   .     S
C975   C558    1.409   1_455 A
N976   C547    1.367   1_455 A
C977   C550    1.409   1_455 A
C977   C978    1.504   .     S
C978   C539    1.407   1_455 A
N979   C129    1.364   1_455 A
C980   C132    1.409   1_455 A
C980   C981    1.503   .     S
C981   C121    1.409   1_455 A
N982   C148    1.366   1_455 A
C983   C151    1.408   1_455 A
C983   C984    1.503   .     S
C984   C140    1.407   1_455 A
N985   C642    1.364   1_545 A
C986   C645    1.409   1_545 A
C986   C987    1.504   .     S
C987   C634    1.409   1_545 A
N988   C623    1.366   1_545 A
C989   C626    1.409   1_545 A
C989   C990    1.504   .     S
C990   C615    1.406   1_545 A
N991   C205    1.365   1_545 A
C992   C208    1.408   1_545 A
C992   C993    1.502   .     S
C993   C197    1.408   1_545 A
N994   C224    1.364   1_545 A
C995   C227    1.409   1_545 A
C995   C996    1.505   .     S
C996   C216    1.409   1_545 A
C998   C999    1.503   .     S
C1001  C1002   1.504   .     S
C1004  C1005   1.502   .     S
C1007  C1008   1.504   .     S
C1010  C1011   1.504   .     S
C1013  C1014   1.502   .     S
C1016  C1017   1.504   .     S
C1019  C1020   1.503   .     S
C1022  C1023   1.503   .     S
C1025  C1026   1.503   .     S
C1028  C1029   1.505   .     S
C1031  C1032   1.503   .     S
