data_XUMPIH_FSR
_audit_creation_date              2024-06-11
_audit_creation_method            'Materials Studio'
_symmetry_space_group_name_H-M    'P1'
_symmetry_Int_Tables_number       1
_symmetry_cell_setting            triclinic
loop_
_symmetry_equiv_pos_as_xyz
  x,y,z
_cell_length_a                    25.9510
_cell_length_b                    11.0400
_cell_length_c                    16.8030
_cell_angle_alpha                 90.0000
_cell_angle_beta                  137.1600
_cell_angle_gamma                 90.0000
loop_
_atom_site_label
_atom_site_type_symbol
_atom_site_fract_x
_atom_site_fract_y
_atom_site_fract_z
_atom_site_U_iso_or_equiv
_atom_site_adp_type
_atom_site_occupancy
C1     C     0.63068   0.52790  -0.31890   0.02414  Uani   1.00
C2     C     0.46516   0.55230  -0.40880   0.02977  Uani   1.00
C3     C     0.58744   0.44200  -0.31800   0.02016  Uani   1.00
C4     C     0.51851   0.45130  -0.35880   0.02103  Uani   1.00
C5     C     0.56400   0.26690  -0.29290   0.02055  Uani   1.00
C6     C     0.56620   0.13690  -0.27080   0.02272  Uani   1.00
C7     C     0.52196   0.05860  -0.36560   0.03540  Uani   1.00
H8     H     0.49010   0.09200  -0.44000   0.04300  Uiso   1.00
C9     C     0.52439  -0.06420  -0.34910   0.04492  Uani   1.00
H10    H     0.49340  -0.12000  -0.41800   0.05400  Uiso   1.00
C11    C     0.57097  -0.11040  -0.23830   0.04274  Uani   1.00
H12    H     0.57140  -0.19600  -0.23100   0.05100  Uiso   1.00
C13    C     0.61516  -0.03390  -0.14330   0.03449  Uani   1.00
H14    H     0.64490  -0.06100  -0.06900   0.04100  Uiso   1.00
C15    C     0.61393   0.09070  -0.15700   0.02228  Uani   1.00
C16    C     0.65951   0.17300  -0.05260   0.02304  Uani   1.00
N17    N     0.61521   0.32698  -0.27646   0.02037  Uani   1.00
N18    N     0.50468   0.33990  -0.34244   0.02213  Uani   1.00
H19    H     0.46540   0.31900  -0.36300   0.03000  Uiso   1.00
O20    O     0.69255   0.49268  -0.27593   0.02981  Uani   1.00
O21    O     0.60137   0.63132  -0.36607   0.03352  Uani   1.00
O22    O     0.47969   0.65132  -0.43228   0.03510  Uani   1.00
H23    H     0.52290   0.64900  -0.41400   0.05300  Uiso   1.00
O24    O     0.40987   0.54240  -0.42910   0.05222  Uani   1.00
O25    O     0.63334   0.27494  -0.06600   0.02975  Uani   1.00
O26    O     0.72196   0.13175   0.04439   0.02944  Uani   1.00
O27    O     0.66638   0.23400  -0.37412   0.03921  Uani   1.00
H28    H     0.62420   0.26800  -0.43600   0.05900  Uiso   1.00
H29    H     0.69170   0.24000  -0.38600   0.05900  Uiso   1.00
O30    O     0.75394   0.12510  -0.14992   0.03365  Uani   1.00
H31    H     0.77090   0.11130  -0.17750   0.05000  Uiso   1.00
H32    H     0.79060   0.12860  -0.07740   0.05000  Uiso   1.00
O33    O     0.82022   0.33590  -0.16647   0.04056  Uani   1.00
H34    H     0.81170   0.36600  -0.22100   0.06100  Uiso   1.00
H35    H     0.84860   0.27200  -0.14000   0.06100  Uiso   1.00
Zn36   Zn    0.72179   0.30231  -0.20845   0.02507  Uani   1.00
C37    C     0.13068   1.02790  -0.31890   0.02414  Uani   1.00
C38    C    -0.03484   1.05230  -0.40880   0.02977  Uani   1.00
C39    C     0.08744   0.94200  -0.31800   0.02016  Uani   1.00
C40    C     0.01851   0.95130  -0.35880   0.02103  Uani   1.00
C41    C     0.06400   0.76690  -0.29290   0.02055  Uani   1.00
C42    C     0.06620   0.63690  -0.27080   0.02272  Uani   1.00
C43    C     0.02196   0.55860  -0.36560   0.03540  Uani   1.00
H44    H    -0.00990   0.59200  -0.44000   0.04300  Uiso   1.00
C45    C     0.02439   0.43580  -0.34910   0.04492  Uani   1.00
H46    H    -0.00660   0.38000  -0.41800   0.05400  Uiso   1.00
C47    C     0.07097   0.38960  -0.23830   0.04274  Uani   1.00
H48    H     0.07140   0.30400  -0.23100   0.05100  Uiso   1.00
C49    C     0.11516   0.46610  -0.14330   0.03449  Uani   1.00
H50    H     0.14490   0.43900  -0.06900   0.04100  Uiso   1.00
C51    C     0.11393   0.59070  -0.15700   0.02228  Uani   1.00
C52    C     0.15951   0.67300  -0.05260   0.02304  Uani   1.00
N53    N     0.11521   0.82698  -0.27646   0.02037  Uani   1.00
N54    N     0.00468   0.83990  -0.34244   0.02213  Uani   1.00
H55    H    -0.03460   0.81900  -0.36300   0.03000  Uiso   1.00
O56    O     0.19255   0.99268  -0.27593   0.02981  Uani   1.00
O57    O     0.10137   1.13132  -0.36607   0.03352  Uani   1.00
O58    O    -0.02031   1.15132  -0.43228   0.03510  Uani   1.00
H59    H     0.02290   1.14900  -0.41400   0.05300  Uiso   1.00
O60    O    -0.09013   1.04240  -0.42910   0.05222  Uani   1.00
O61    O     0.13334   0.77494  -0.06600   0.02975  Uani   1.00
O62    O     0.22196   0.63175   0.04439   0.02944  Uani   1.00
O63    O     0.16638   0.73400  -0.37412   0.03921  Uani   1.00
H64    H     0.12420   0.76800  -0.43600   0.05900  Uiso   1.00
H65    H     0.19170   0.74000  -0.38600   0.05900  Uiso   1.00
O66    O     0.25394   0.62510  -0.14992   0.03365  Uani   1.00
H67    H     0.27090   0.61130  -0.17750   0.05000  Uiso   1.00
H68    H     0.29060   0.62860  -0.07740   0.05000  Uiso   1.00
O69    O     0.32022   0.83590  -0.16647   0.04056  Uani   1.00
H70    H     0.31170   0.86600  -0.22100   0.06100  Uiso   1.00
H71    H     0.34860   0.77200  -0.14000   0.06100  Uiso   1.00
Zn72   Zn    0.22179   0.80231  -0.20845   0.02507  Uani   1.00
C73    C     0.36932   0.52790   0.81890   0.02414  Uani   1.00
C74    C     0.53484   0.55230   0.90880   0.02977  Uani   1.00
C75    C     0.41256   0.44200   0.81800   0.02016  Uani   1.00
C76    C     0.48149   0.45130   0.85880   0.02103  Uani   1.00
C77    C     0.43600   0.26690   0.79290   0.02055  Uani   1.00
C78    C     0.43380   0.13690   0.77080   0.02272  Uani   1.00
C79    C     0.47804   0.05860   0.86560   0.03540  Uani   1.00
H80    H     0.50990   0.09200   0.94000   0.04300  Uiso   1.00
C81    C     0.47561  -0.06420   0.84910   0.04492  Uani   1.00
H82    H     0.50660  -0.12000   0.91800   0.05400  Uiso   1.00
C83    C     0.42903  -0.11040   0.73830   0.04274  Uani   1.00
H84    H     0.42860  -0.19600   0.73100   0.05100  Uiso   1.00
C85    C     0.38484  -0.03390   0.64330   0.03449  Uani   1.00
H86    H     0.35510  -0.06100   0.56900   0.04100  Uiso   1.00
C87    C     0.38607   0.09070   0.65700   0.02228  Uani   1.00
C88    C     0.34049   0.17300   0.55260   0.02304  Uani   1.00
N89    N     0.38479   0.32698   0.77646   0.02037  Uani   1.00
N90    N     0.49532   0.33990   0.84244   0.02213  Uani   1.00
H91    H     0.53460   0.31900   0.86300   0.03000  Uiso   1.00
O92    O     0.30745   0.49268   0.77593   0.02981  Uani   1.00
O93    O     0.39863   0.63132   0.86607   0.03352  Uani   1.00
O94    O     0.52031   0.65132   0.93228   0.03510  Uani   1.00
H95    H     0.47710   0.64900   0.91400   0.05300  Uiso   1.00
O96    O     0.59013   0.54240   0.92910   0.05222  Uani   1.00
O97    O     0.36666   0.27494   0.56600   0.02975  Uani   1.00
O98    O     0.27804   0.13175   0.45561   0.02944  Uani   1.00
O99    O     0.33362   0.23400   0.87412   0.03921  Uani   1.00
H100   H     0.37580   0.26800   0.93600   0.05900  Uiso   1.00
H101   H     0.30830   0.24000   0.88600   0.05900  Uiso   1.00
O102   O     0.24606   0.12510   0.64992   0.03365  Uani   1.00
H103   H     0.22910   0.11130   0.67750   0.05000  Uiso   1.00
H104   H     0.20940   0.12860   0.57740   0.05000  Uiso   1.00
O105   O     0.17978   0.33590   0.66647   0.04056  Uani   1.00
H106   H     0.18830   0.36600   0.72100   0.06100  Uiso   1.00
H107   H     0.15140   0.27200   0.64000   0.06100  Uiso   1.00
Zn108  Zn    0.27821   0.30231   0.70845   0.02507  Uani   1.00
C109   C     0.86932   1.02790   0.81890   0.02414  Uani   1.00
C110   C     1.03484   1.05230   0.90880   0.02977  Uani   1.00
C111   C     0.91256   0.94200   0.81800   0.02016  Uani   1.00
C112   C     0.98149   0.95130   0.85880   0.02103  Uani   1.00
C113   C     0.93600   0.76690   0.79290   0.02055  Uani   1.00
C114   C     0.93380   0.63690   0.77080   0.02272  Uani   1.00
C115   C     0.97804   0.55860   0.86560   0.03540  Uani   1.00
H116   H     1.00990   0.59200   0.94000   0.04300  Uiso   1.00
C117   C     0.97561   0.43580   0.84910   0.04492  Uani   1.00
H118   H     1.00660   0.38000   0.91800   0.05400  Uiso   1.00
C119   C     0.92903   0.38960   0.73830   0.04274  Uani   1.00
H120   H     0.92860   0.30400   0.73100   0.05100  Uiso   1.00
C121   C     0.88484   0.46610   0.64330   0.03449  Uani   1.00
H122   H     0.85510   0.43900   0.56900   0.04100  Uiso   1.00
C123   C     0.88607   0.59070   0.65700   0.02228  Uani   1.00
C124   C     0.84049   0.67300   0.55260   0.02304  Uani   1.00
N125   N     0.88479   0.82698   0.77646   0.02037  Uani   1.00
N126   N     0.99532   0.83990   0.84244   0.02213  Uani   1.00
H127   H     1.03460   0.81900   0.86300   0.03000  Uiso   1.00
O128   O     0.80745   0.99268   0.77593   0.02981  Uani   1.00
O129   O     0.89863   1.13132   0.86607   0.03352  Uani   1.00
O130   O     1.02031   1.15132   0.93228   0.03510  Uani   1.00
H131   H     0.97710   1.14900   0.91400   0.05300  Uiso   1.00
O132   O     1.09013   1.04240   0.92910   0.05222  Uani   1.00
O133   O     0.86666   0.77494   0.56600   0.02975  Uani   1.00
O134   O     0.77804   0.63175   0.45561   0.02944  Uani   1.00
O135   O     0.83362   0.73400   0.87412   0.03921  Uani   1.00
H136   H     0.87580   0.76800   0.93600   0.05900  Uiso   1.00
H137   H     0.80830   0.74000   0.88600   0.05900  Uiso   1.00
O138   O     0.74606   0.62510   0.64992   0.03365  Uani   1.00
H139   H     0.72910   0.61130   0.67750   0.05000  Uiso   1.00
H140   H     0.70940   0.62860   0.57740   0.05000  Uiso   1.00
O141   O     0.67978   0.83590   0.66647   0.04056  Uani   1.00
H142   H     0.68830   0.86600   0.72100   0.06100  Uiso   1.00
H143   H     0.65140   0.77200   0.64000   0.06100  Uiso   1.00
Zn144  Zn    0.77821   0.80231   0.70845   0.02507  Uani   1.00
C145   C     0.36932   0.47210   0.31890   0.02414  Uani   1.00
C146   C     0.53484   0.44770   0.40880   0.02977  Uani   1.00
C147   C     0.41256   0.55800   0.31800   0.02016  Uani   1.00
C148   C     0.48149   0.54870   0.35880   0.02103  Uani   1.00
C149   C     0.43600   0.73310   0.29290   0.02055  Uani   1.00
C150   C     0.43380   0.86310   0.27080   0.02272  Uani   1.00
C151   C     0.47804   0.94140   0.36560   0.03540  Uani   1.00
H152   H     0.50990   0.90800   0.44000   0.04300  Uiso   1.00
C153   C     0.47561   1.06420   0.34910   0.04492  Uani   1.00
H154   H     0.50660   1.12000   0.41800   0.05400  Uiso   1.00
C155   C     0.42903   1.11040   0.23830   0.04274  Uani   1.00
H156   H     0.42860   1.19600   0.23100   0.05100  Uiso   1.00
C157   C     0.38484   1.03390   0.14330   0.03449  Uani   1.00
H158   H     0.35510   1.06100   0.06900   0.04100  Uiso   1.00
C159   C     0.38607   0.90930   0.15700   0.02228  Uani   1.00
C160   C     0.34049   0.82700   0.05260   0.02304  Uani   1.00
N161   N     0.38479   0.67302   0.27646   0.02037  Uani   1.00
N162   N     0.49532   0.66010   0.34244   0.02213  Uani   1.00
H163   H     0.53460   0.68100   0.36300   0.03000  Uiso   1.00
O164   O     0.30745   0.50732   0.27593   0.02981  Uani   1.00
O165   O     0.39863   0.36868   0.36607   0.03352  Uani   1.00
O166   O     0.52031   0.34868   0.43228   0.03510  Uani   1.00
H167   H     0.47710   0.35100   0.41400   0.05300  Uiso   1.00
O168   O     0.59013   0.45760   0.42910   0.05222  Uani   1.00
O169   O     0.36666   0.72506   0.06600   0.02975  Uani   1.00
O170   O     0.27804   0.86825  -0.04439   0.02944  Uani   1.00
O171   O     0.33362   0.76600   0.37412   0.03921  Uani   1.00
H172   H     0.37580   0.73200   0.43600   0.05900  Uiso   1.00
H173   H     0.30830   0.76000   0.38600   0.05900  Uiso   1.00
O174   O     0.24606   0.87490   0.14992   0.03365  Uani   1.00
H175   H     0.22910   0.88870   0.17750   0.05000  Uiso   1.00
H176   H     0.20940   0.87140   0.07740   0.05000  Uiso   1.00
O177   O     0.17978   0.66410   0.16647   0.04056  Uani   1.00
H178   H     0.18830   0.63400   0.22100   0.06100  Uiso   1.00
H179   H     0.15140   0.72800   0.14000   0.06100  Uiso   1.00
Zn180  Zn    0.27821   0.69769   0.20845   0.02507  Uani   1.00
C181   C     0.86932  -0.02790   0.31890   0.02414  Uani   1.00
C182   C     1.03484  -0.05230   0.40880   0.02977  Uani   1.00
C183   C     0.91256   0.05800   0.31800   0.02016  Uani   1.00
C184   C     0.98149   0.04870   0.35880   0.02103  Uani   1.00
C185   C     0.93600   0.23310   0.29290   0.02055  Uani   1.00
C186   C     0.93380   0.36310   0.27080   0.02272  Uani   1.00
C187   C     0.97804   0.44140   0.36560   0.03540  Uani   1.00
H188   H     1.00990   0.40800   0.44000   0.04300  Uiso   1.00
C189   C     0.97561   0.56420   0.34910   0.04492  Uani   1.00
H190   H     1.00660   0.62000   0.41800   0.05400  Uiso   1.00
C191   C     0.92903   0.61040   0.23830   0.04274  Uani   1.00
H192   H     0.92860   0.69600   0.23100   0.05100  Uiso   1.00
C193   C     0.88484   0.53390   0.14330   0.03449  Uani   1.00
H194   H     0.85510   0.56100   0.06900   0.04100  Uiso   1.00
C195   C     0.88607   0.40930   0.15700   0.02228  Uani   1.00
C196   C     0.84049   0.32700   0.05260   0.02304  Uani   1.00
N197   N     0.88479   0.17302   0.27646   0.02037  Uani   1.00
N198   N     0.99532   0.16010   0.34244   0.02213  Uani   1.00
H199   H     1.03460   0.18100   0.36300   0.03000  Uiso   1.00
O200   O     0.80745   0.00732   0.27593   0.02981  Uani   1.00
O201   O     0.89863  -0.13132   0.36607   0.03352  Uani   1.00
O202   O     1.02031  -0.15132   0.43228   0.03510  Uani   1.00
H203   H     0.97710  -0.14900   0.41400   0.05300  Uiso   1.00
O204   O     1.09013  -0.04240   0.42910   0.05222  Uani   1.00
O205   O     0.86666   0.22506   0.06600   0.02975  Uani   1.00
O206   O     0.77804   0.36825  -0.04439   0.02944  Uani   1.00
O207   O     0.83362   0.26600   0.37412   0.03921  Uani   1.00
H208   H     0.87580   0.23200   0.43600   0.05900  Uiso   1.00
H209   H     0.80830   0.26000   0.38600   0.05900  Uiso   1.00
O210   O     0.74606   0.37490   0.14992   0.03365  Uani   1.00
H211   H     0.72910   0.38870   0.17750   0.05000  Uiso   1.00
H212   H     0.70940   0.37140   0.07740   0.05000  Uiso   1.00
O213   O     0.67978   0.16410   0.16647   0.04056  Uani   1.00
H214   H     0.68830   0.13400   0.22100   0.06100  Uiso   1.00
H215   H     0.65140   0.22800   0.14000   0.06100  Uiso   1.00
Zn216  Zn    0.77821   0.19769   0.20845   0.02507  Uani   1.00
C217   C     0.63068   0.47210   0.18110   0.02414  Uani   1.00
C218   C     0.46516   0.44770   0.09120   0.02977  Uani   1.00
C219   C     0.58744   0.55800   0.18200   0.02016  Uani   1.00
C220   C     0.51851   0.54870   0.14120   0.02103  Uani   1.00
C221   C     0.56400   0.73310   0.20710   0.02055  Uani   1.00
C222   C     0.56620   0.86310   0.22920   0.02272  Uani   1.00
C223   C     0.52196   0.94140   0.13440   0.03540  Uani   1.00
H224   H     0.49010   0.90800   0.06000   0.04300  Uiso   1.00
C225   C     0.52439   1.06420   0.15090   0.04492  Uani   1.00
H226   H     0.49340   1.12000   0.08200   0.05400  Uiso   1.00
C227   C     0.57097   1.11040   0.26170   0.04274  Uani   1.00
H228   H     0.57140   1.19600   0.26900   0.05100  Uiso   1.00
C229   C     0.61516   1.03390   0.35670   0.03449  Uani   1.00
H230   H     0.64490   1.06100   0.43100   0.04100  Uiso   1.00
C231   C     0.61393   0.90930   0.34300   0.02228  Uani   1.00
C232   C     0.65951   0.82700   0.44740   0.02304  Uani   1.00
N233   N     0.61521   0.67302   0.22354   0.02037  Uani   1.00
N234   N     0.50468   0.66010   0.15756   0.02213  Uani   1.00
H235   H     0.46540   0.68100   0.13700   0.03000  Uiso   1.00
O236   O     0.69255   0.50732   0.22407   0.02981  Uani   1.00
O237   O     0.60137   0.36868   0.13393   0.03352  Uani   1.00
O238   O     0.47969   0.34868   0.06772   0.03510  Uani   1.00
H239   H     0.52290   0.35100   0.08600   0.05300  Uiso   1.00
O240   O     0.40987   0.45760   0.07090   0.05222  Uani   1.00
O241   O     0.63334   0.72506   0.43400   0.02975  Uani   1.00
O242   O     0.72196   0.86825   0.54439   0.02944  Uani   1.00
O243   O     0.66638   0.76600   0.12588   0.03921  Uani   1.00
H244   H     0.62420   0.73200   0.06400   0.05900  Uiso   1.00
H245   H     0.69170   0.76000   0.11400   0.05900  Uiso   1.00
O246   O     0.75394   0.87490   0.35008   0.03365  Uani   1.00
H247   H     0.77090   0.88870   0.32250   0.05000  Uiso   1.00
H248   H     0.79060   0.87140   0.42260   0.05000  Uiso   1.00
O249   O     0.82022   0.66410   0.33353   0.04056  Uani   1.00
H250   H     0.81170   0.63400   0.27900   0.06100  Uiso   1.00
H251   H     0.84860   0.72800   0.36000   0.06100  Uiso   1.00
Zn252  Zn    0.72179   0.69769   0.29155   0.02507  Uani   1.00
C253   C     0.13068  -0.02790   0.18110   0.02414  Uani   1.00
C254   C    -0.03484  -0.05230   0.09120   0.02977  Uani   1.00
C255   C     0.08744   0.05800   0.18200   0.02016  Uani   1.00
C256   C     0.01851   0.04870   0.14120   0.02103  Uani   1.00
C257   C     0.06400   0.23310   0.20710   0.02055  Uani   1.00
C258   C     0.06620   0.36310   0.22920   0.02272  Uani   1.00
C259   C     0.02196   0.44140   0.13440   0.03540  Uani   1.00
H260   H    -0.00990   0.40800   0.06000   0.04300  Uiso   1.00
C261   C     0.02439   0.56420   0.15090   0.04492  Uani   1.00
H262   H    -0.00660   0.62000   0.08200   0.05400  Uiso   1.00
C263   C     0.07097   0.61040   0.26170   0.04274  Uani   1.00
H264   H     0.07140   0.69600   0.26900   0.05100  Uiso   1.00
C265   C     0.11516   0.53390   0.35670   0.03449  Uani   1.00
H266   H     0.14490   0.56100   0.43100   0.04100  Uiso   1.00
C267   C     0.11393   0.40930   0.34300   0.02228  Uani   1.00
C268   C     0.15951   0.32700   0.44740   0.02304  Uani   1.00
N269   N     0.11521   0.17302   0.22354   0.02037  Uani   1.00
N270   N     0.00468   0.16010   0.15756   0.02213  Uani   1.00
H271   H    -0.03460   0.18100   0.13700   0.03000  Uiso   1.00
O272   O     0.19255   0.00732   0.22407   0.02981  Uani   1.00
O273   O     0.10137  -0.13132   0.13393   0.03352  Uani   1.00
O274   O    -0.02031  -0.15132   0.06772   0.03510  Uani   1.00
H275   H     0.02290  -0.14900   0.08600   0.05300  Uiso   1.00
O276   O    -0.09013  -0.04240   0.07090   0.05222  Uani   1.00
O277   O     0.13334   0.22506   0.43400   0.02975  Uani   1.00
O278   O     0.22196   0.36825   0.54439   0.02944  Uani   1.00
O279   O     0.16638   0.26600   0.12588   0.03921  Uani   1.00
H280   H     0.12420   0.23200   0.06400   0.05900  Uiso   1.00
H281   H     0.19170   0.26000   0.11400   0.05900  Uiso   1.00
O282   O     0.25394   0.37490   0.35008   0.03365  Uani   1.00
H283   H     0.27090   0.38870   0.32250   0.05000  Uiso   1.00
H284   H     0.29060   0.37140   0.42260   0.05000  Uiso   1.00
O285   O     0.32022   0.16410   0.33353   0.04056  Uani   1.00
H286   H     0.31170   0.13400   0.27900   0.06100  Uiso   1.00
H287   H     0.34860   0.22800   0.36000   0.06100  Uiso   1.00
Zn288  Zn    0.22179   0.19769   0.29155   0.02507  Uani   1.00
loop_
_atom_site_aniso_label
_atom_site_aniso_U_11
_atom_site_aniso_U_22
_atom_site_aniso_U_33
_atom_site_aniso_U_12
_atom_site_aniso_U_13
_atom_site_aniso_U_23
C1        0.02100   0.02480   0.02140  -0.00330   0.01390  -0.00130
C2        0.02570   0.02780   0.03310   0.00260   0.02070  -0.00100
C3        0.02110   0.02030   0.01830  -0.00170   0.01420  -0.00030
C4        0.02020   0.01890   0.02150  -0.00060   0.01450  -0.00050
C5        0.01950   0.02180   0.01740   0.00030   0.01260   0.00020
C6        0.02230   0.02100   0.02810  -0.00060   0.01950  -0.00010
C7        0.03760   0.03150   0.02670  -0.00520   0.02030  -0.00540
C9        0.04790   0.02940   0.04540  -0.01060   0.03040  -0.01460
C11       0.04730   0.01670   0.05500  -0.00420   0.03460  -0.00150
C13       0.03280   0.02630   0.03690   0.00300   0.02320   0.00720
C15       0.01810   0.02370   0.02590   0.00340   0.01640   0.00210
C16       0.02170   0.02770   0.02590   0.00310   0.01940   0.00240
N17       0.01760   0.02030   0.02180   0.00080   0.01400   0.00200
N18       0.01780   0.02480   0.02460  -0.00050   0.01580   0.00090
O20       0.02490   0.03160   0.03630   0.00130   0.02350   0.00550
O21       0.02840   0.02420   0.04430   0.00200   0.02550   0.01010
O22       0.02730   0.02380   0.04660   0.00480   0.02470   0.00720
O24       0.04160   0.04350   0.08610   0.01450   0.05140   0.01780
O25       0.02320   0.02900   0.02710   0.00650   0.01530   0.00010
O26       0.02520   0.03370   0.02220   0.01050   0.01510   0.00360
O27       0.03500   0.05040   0.03010   0.01150   0.02320   0.00480
O30       0.03320   0.03480   0.03200   0.00860   0.02360   0.00520
O33       0.03590   0.04680   0.04800   0.00790   0.03360   0.00750
Zn36      0.02151   0.02850   0.02618   0.00425   0.01779   0.00205
C37       0.02100   0.02480   0.02140  -0.00330   0.01390  -0.00130
C38       0.02570   0.02780   0.03310   0.00260   0.02070  -0.00100
C39       0.02110   0.02030   0.01830  -0.00170   0.01420  -0.00030
C40       0.02020   0.01890   0.02150  -0.00060   0.01450  -0.00050
C41       0.01950   0.02180   0.01740   0.00030   0.01260   0.00020
C42       0.02230   0.02100   0.02810  -0.00060   0.01950  -0.00010
C43       0.03760   0.03150   0.02670  -0.00520   0.02030  -0.00540
C45       0.04790   0.02940   0.04540  -0.01060   0.03040  -0.01460
C47       0.04730   0.01670   0.05500  -0.00420   0.03460  -0.00150
C49       0.03280   0.02630   0.03690   0.00300   0.02320   0.00720
C51       0.01810   0.02370   0.02590   0.00340   0.01640   0.00210
C52       0.02170   0.02770   0.02590   0.00310   0.01940   0.00240
N53       0.01760   0.02030   0.02180   0.00080   0.01400   0.00200
N54       0.01780   0.02480   0.02460  -0.00050   0.01580   0.00090
O56       0.02490   0.03160   0.03630   0.00130   0.02350   0.00550
O57       0.02840   0.02420   0.04430   0.00200   0.02550   0.01010
O58       0.02730   0.02380   0.04660   0.00480   0.02470   0.00720
O60       0.04160   0.04350   0.08610   0.01450   0.05140   0.01780
O61       0.02320   0.02900   0.02710   0.00650   0.01530   0.00010
O62       0.02520   0.03370   0.02220   0.01050   0.01510   0.00360
O63       0.03500   0.05040   0.03010   0.01150   0.02320   0.00480
O66       0.03320   0.03480   0.03200   0.00860   0.02360   0.00520
O69       0.03590   0.04680   0.04800   0.00790   0.03360   0.00750
Zn72      0.02151   0.02850   0.02618   0.00425   0.01779   0.00205
C73       0.02100   0.02480   0.02140   0.00330   0.01390   0.00130
C74       0.02570   0.02780   0.03310  -0.00260   0.02070   0.00100
C75       0.02110   0.02030   0.01830   0.00170   0.01420   0.00030
C76       0.02020   0.01890   0.02150   0.00060   0.01450   0.00050
C77       0.01950   0.02180   0.01740  -0.00030   0.01260  -0.00020
C78       0.02230   0.02100   0.02810   0.00060   0.01950   0.00010
C79       0.03760   0.03150   0.02670   0.00520   0.02030   0.00540
C81       0.04790   0.02940   0.04540   0.01060   0.03040   0.01460
C83       0.04730   0.01670   0.05500   0.00420   0.03460   0.00150
C85       0.03280   0.02630   0.03690  -0.00300   0.02320  -0.00720
C87       0.01810   0.02370   0.02590  -0.00340   0.01640  -0.00210
C88       0.02170   0.02770   0.02590  -0.00310   0.01940  -0.00240
N89       0.01760   0.02030   0.02180  -0.00080   0.01400  -0.00200
N90       0.01780   0.02480   0.02460   0.00050   0.01580  -0.00090
O92       0.02490   0.03160   0.03630  -0.00130   0.02350  -0.00550
O93       0.02840   0.02420   0.04430  -0.00200   0.02550  -0.01010
O94       0.02730   0.02380   0.04660  -0.00480   0.02470  -0.00720
O96       0.04160   0.04350   0.08610  -0.01450   0.05140  -0.01780
O97       0.02320   0.02900   0.02710  -0.00650   0.01530  -0.00010
O98       0.02520   0.03370   0.02220  -0.01050   0.01510  -0.00360
O99       0.03500   0.05040   0.03010  -0.01150   0.02320  -0.00480
O102      0.03320   0.03480   0.03200  -0.00860   0.02360  -0.00520
O105      0.03590   0.04680   0.04800  -0.00790   0.03360  -0.00750
Zn108     0.02151   0.02850   0.02618  -0.00425   0.01779  -0.00205
C109      0.02100   0.02480   0.02140   0.00330   0.01390   0.00130
C110      0.02570   0.02780   0.03310  -0.00260   0.02070   0.00100
C111      0.02110   0.02030   0.01830   0.00170   0.01420   0.00030
C112      0.02020   0.01890   0.02150   0.00060   0.01450   0.00050
C113      0.01950   0.02180   0.01740  -0.00030   0.01260  -0.00020
C114      0.02230   0.02100   0.02810   0.00060   0.01950   0.00010
C115      0.03760   0.03150   0.02670   0.00520   0.02030   0.00540
C117      0.04790   0.02940   0.04540   0.01060   0.03040   0.01460
C119      0.04730   0.01670   0.05500   0.00420   0.03460   0.00150
C121      0.03280   0.02630   0.03690  -0.00300   0.02320  -0.00720
C123      0.01810   0.02370   0.02590  -0.00340   0.01640  -0.00210
C124      0.02170   0.02770   0.02590  -0.00310   0.01940  -0.00240
N125      0.01760   0.02030   0.02180  -0.00080   0.01400  -0.00200
N126      0.01780   0.02480   0.02460   0.00050   0.01580  -0.00090
O128      0.02490   0.03160   0.03630  -0.00130   0.02350  -0.00550
O129      0.02840   0.02420   0.04430  -0.00200   0.02550  -0.01010
O130      0.02730   0.02380   0.04660  -0.00480   0.02470  -0.00720
O132      0.04160   0.04350   0.08610  -0.01450   0.05140  -0.01780
O133      0.02320   0.02900   0.02710  -0.00650   0.01530  -0.00010
O134      0.02520   0.03370   0.02220  -0.01050   0.01510  -0.00360
O135      0.03500   0.05040   0.03010  -0.01150   0.02320  -0.00480
O138      0.03320   0.03480   0.03200  -0.00860   0.02360  -0.00520
O141      0.03590   0.04680   0.04800  -0.00790   0.03360  -0.00750
Zn144     0.02151   0.02850   0.02618  -0.00425   0.01779  -0.00205
C145      0.02100   0.02480   0.02140  -0.00330   0.01390  -0.00130
C146      0.02570   0.02780   0.03310   0.00260   0.02070  -0.00100
C147      0.02110   0.02030   0.01830  -0.00170   0.01420  -0.00030
C148      0.02020   0.01890   0.02150  -0.00060   0.01450  -0.00050
C149      0.01950   0.02180   0.01740   0.00030   0.01260   0.00020
C150      0.02230   0.02100   0.02810  -0.00060   0.01950  -0.00010
C151      0.03760   0.03150   0.02670  -0.00520   0.02030  -0.00540
C153      0.04790   0.02940   0.04540  -0.01060   0.03040  -0.01460
C155      0.04730   0.01670   0.05500  -0.00420   0.03460  -0.00150
C157      0.03280   0.02630   0.03690   0.00300   0.02320   0.00720
C159      0.01810   0.02370   0.02590   0.00340   0.01640   0.00210
C160      0.02170   0.02770   0.02590   0.00310   0.01940   0.00240
N161      0.01760   0.02030   0.02180   0.00080   0.01400   0.00200
N162      0.01780   0.02480   0.02460  -0.00050   0.01580   0.00090
O164      0.02490   0.03160   0.03630   0.00130   0.02350   0.00550
O165      0.02840   0.02420   0.04430   0.00200   0.02550   0.01010
O166      0.02730   0.02380   0.04660   0.00480   0.02470   0.00720
O168      0.04160   0.04350   0.08610   0.01450   0.05140   0.01780
O169      0.02320   0.02900   0.02710   0.00650   0.01530   0.00010
O170      0.02520   0.03370   0.02220   0.01050   0.01510   0.00360
O171      0.03500   0.05040   0.03010   0.01150   0.02320   0.00480
O174      0.03320   0.03480   0.03200   0.00860   0.02360   0.00520
O177      0.03590   0.04680   0.04800   0.00790   0.03360   0.00750
Zn180     0.02151   0.02850   0.02618   0.00425   0.01779   0.00205
C181      0.02100   0.02480   0.02140  -0.00330   0.01390  -0.00130
C182      0.02570   0.02780   0.03310   0.00260   0.02070  -0.00100
C183      0.02110   0.02030   0.01830  -0.00170   0.01420  -0.00030
C184      0.02020   0.01890   0.02150  -0.00060   0.01450  -0.00050
C185      0.01950   0.02180   0.01740   0.00030   0.01260   0.00020
C186      0.02230   0.02100   0.02810  -0.00060   0.01950  -0.00010
C187      0.03760   0.03150   0.02670  -0.00520   0.02030  -0.00540
C189      0.04790   0.02940   0.04540  -0.01060   0.03040  -0.01460
C191      0.04730   0.01670   0.05500  -0.00420   0.03460  -0.00150
C193      0.03280   0.02630   0.03690   0.00300   0.02320   0.00720
C195      0.01810   0.02370   0.02590   0.00340   0.01640   0.00210
C196      0.02170   0.02770   0.02590   0.00310   0.01940   0.00240
N197      0.01760   0.02030   0.02180   0.00080   0.01400   0.00200
N198      0.01780   0.02480   0.02460  -0.00050   0.01580   0.00090
O200      0.02490   0.03160   0.03630   0.00130   0.02350   0.00550
O201      0.02840   0.02420   0.04430   0.00200   0.02550   0.01010
O202      0.02730   0.02380   0.04660   0.00480   0.02470   0.00720
O204      0.04160   0.04350   0.08610   0.01450   0.05140   0.01780
O205      0.02320   0.02900   0.02710   0.00650   0.01530   0.00010
O206      0.02520   0.03370   0.02220   0.01050   0.01510   0.00360
O207      0.03500   0.05040   0.03010   0.01150   0.02320   0.00480
O210      0.03320   0.03480   0.03200   0.00860   0.02360   0.00520
O213      0.03590   0.04680   0.04800   0.00790   0.03360   0.00750
Zn216     0.02151   0.02850   0.02618   0.00425   0.01779   0.00205
C217      0.02100   0.02480   0.02140   0.00330   0.01390   0.00130
C218      0.02570   0.02780   0.03310  -0.00260   0.02070   0.00100
C219      0.02110   0.02030   0.01830   0.00170   0.01420   0.00030
C220      0.02020   0.01890   0.02150   0.00060   0.01450   0.00050
C221      0.01950   0.02180   0.01740  -0.00030   0.01260  -0.00020
C222      0.02230   0.02100   0.02810   0.00060   0.01950   0.00010
C223      0.03760   0.03150   0.02670   0.00520   0.02030   0.00540
C225      0.04790   0.02940   0.04540   0.01060   0.03040   0.01460
C227      0.04730   0.01670   0.05500   0.00420   0.03460   0.00150
C229      0.03280   0.02630   0.03690  -0.00300   0.02320  -0.00720
C231      0.01810   0.02370   0.02590  -0.00340   0.01640  -0.00210
C232      0.02170   0.02770   0.02590  -0.00310   0.01940  -0.00240
N233      0.01760   0.02030   0.02180  -0.00080   0.01400  -0.00200
N234      0.01780   0.02480   0.02460   0.00050   0.01580  -0.00090
O236      0.02490   0.03160   0.03630  -0.00130   0.02350  -0.00550
O237      0.02840   0.02420   0.04430  -0.00200   0.02550  -0.01010
O238      0.02730   0.02380   0.04660  -0.00480   0.02470  -0.00720
O240      0.04160   0.04350   0.08610  -0.01450   0.05140  -0.01780
O241      0.02320   0.02900   0.02710  -0.00650   0.01530  -0.00010
O242      0.02520   0.03370   0.02220  -0.01050   0.01510  -0.00360
O243      0.03500   0.05040   0.03010  -0.01150   0.02320  -0.00480
O246      0.03320   0.03480   0.03200  -0.00860   0.02360  -0.00520
O249      0.03590   0.04680   0.04800  -0.00790   0.03360  -0.00750
Zn252     0.02151   0.02850   0.02618  -0.00425   0.01779  -0.00205
C253      0.02100   0.02480   0.02140   0.00330   0.01390   0.00130
C254      0.02570   0.02780   0.03310  -0.00260   0.02070   0.00100
C255      0.02110   0.02030   0.01830   0.00170   0.01420   0.00030
C256      0.02020   0.01890   0.02150   0.00060   0.01450   0.00050
C257      0.01950   0.02180   0.01740  -0.00030   0.01260  -0.00020
C258      0.02230   0.02100   0.02810   0.00060   0.01950   0.00010
C259      0.03760   0.03150   0.02670   0.00520   0.02030   0.00540
C261      0.04790   0.02940   0.04540   0.01060   0.03040   0.01460
C263      0.04730   0.01670   0.05500   0.00420   0.03460   0.00150
C265      0.03280   0.02630   0.03690  -0.00300   0.02320  -0.00720
C267      0.01810   0.02370   0.02590  -0.00340   0.01640  -0.00210
C268      0.02170   0.02770   0.02590  -0.00310   0.01940  -0.00240
N269      0.01760   0.02030   0.02180  -0.00080   0.01400  -0.00200
N270      0.01780   0.02480   0.02460   0.00050   0.01580  -0.00090
O272      0.02490   0.03160   0.03630  -0.00130   0.02350  -0.00550
O273      0.02840   0.02420   0.04430  -0.00200   0.02550  -0.01010
O274      0.02730   0.02380   0.04660  -0.00480   0.02470  -0.00720
O276      0.04160   0.04350   0.08610  -0.01450   0.05140  -0.01780
O277      0.02320   0.02900   0.02710  -0.00650   0.01530  -0.00010
O278      0.02520   0.03370   0.02220  -0.01050   0.01510  -0.00360
O279      0.03500   0.05040   0.03010  -0.01150   0.02320  -0.00480
O282      0.03320   0.03480   0.03200  -0.00860   0.02360  -0.00520
O285      0.03590   0.04680   0.04800  -0.00790   0.03360  -0.00750
Zn288     0.02151   0.02850   0.02618  -0.00425   0.01779  -0.00205
loop_
_geom_bond_atom_site_label_1
_geom_bond_atom_site_label_2
_geom_bond_distance
_geom_bond_site_symmetry_2
_ccdc_geom_bond_type
C1     C3      1.478   .     S
C1     O20     1.245   .     S
C1     O21     1.275   .     S
C2     C4      1.470   .     S
C2     O22     1.308   .     S
C2     O24     1.212   .     S
C3     C4      1.372   .     S
C3     N17     1.372   .     S
C4     N18     1.364   .     S
C5     C6      1.473   .     S
C5     N18     1.354   .     S
C5     N17     1.321   .     S
C6     C7      1.386   .     S
C6     C15     1.406   .     S
C7     H8      0.931   .     S
C7     C9      1.376   .     S
C9     H10     1.001   .     S
C9     C11     1.374   .     S
C11    H12     0.952   .     S
C11    C13     1.375   .     S
C13    H14     0.911   .     S
C13    C15     1.391   .     S
C15    C16     1.503   .     S
C16    O25     1.247   .     S
C16    O26     1.271   .     S
N17    Zn36    2.096   .     S
N18    H19     0.834   .     S
O20    Zn36    2.240   .     S
O22    H23     0.920   .     S
O26    Zn216   2.088   .     S
O27    H28     0.867   .     S
O27    H29     0.818   .     S
O27    Zn36    2.125   .     S
O30    H31     0.855   .     S
O30    H32     0.831   .     S
O30    Zn36    2.071   .     S
O33    H34     0.838   .     S
O33    H35     0.870   .     S
O33    Zn36    2.125   .     S
Zn36   O206    2.088   .     S
C37    C39     1.478   .     S
C37    O56     1.245   .     S
C37    O57     1.275   .     S
C38    C40     1.470   .     S
C38    O58     1.308   .     S
C38    O60     1.212   .     S
C39    C40     1.372   .     S
C39    N53     1.372   .     S
C40    N54     1.364   .     S
C41    C42     1.473   .     S
C41    N54     1.354   .     S
C41    N53     1.321   .     S
C42    C43     1.386   .     S
C42    C51     1.406   .     S
C43    H44     0.931   .     S
C43    C45     1.376   .     S
C45    H46     1.001   .     S
C45    C47     1.374   .     S
C47    H48     0.952   .     S
C47    C49     1.375   .     S
C49    H50     0.911   .     S
C49    C51     1.391   .     S
C51    C52     1.503   .     S
C52    O61     1.247   .     S
C52    O62     1.271   .     S
N53    Zn72    2.096   .     S
N54    H55     0.834   .     S
O56    Zn72    2.240   .     S
O58    H59     0.920   .     S
O62    Zn180   2.088   .     S
O63    H64     0.867   .     S
O63    H65     0.818   .     S
O63    Zn72    2.125   .     S
O66    H67     0.855   .     S
O66    H68     0.831   .     S
O66    Zn72    2.071   .     S
O69    H70     0.838   .     S
O69    H71     0.870   .     S
O69    Zn72    2.125   .     S
Zn72   O170    2.088   .     S
C73    C75     1.478   .     S
C73    O92     1.245   .     S
C73    O93     1.275   .     S
C74    C76     1.470   .     S
C74    O94     1.308   .     S
C74    O96     1.212   .     S
C75    C76     1.372   .     S
C75    N89     1.372   .     S
C76    N90     1.364   .     S
C77    C78     1.473   .     S
C77    N90     1.354   .     S
C77    N89     1.321   .     S
C78    C79     1.386   .     S
C78    C87     1.406   .     S
C79    H80     0.931   .     S
C79    C81     1.376   .     S
C81    H82     1.001   .     S
C81    C83     1.374   .     S
C83    H84     0.952   .     S
C83    C85     1.375   .     S
C85    H86     0.911   .     S
C85    C87     1.391   .     S
C87    C88     1.503   .     S
C88    O97     1.247   .     S
C88    O98     1.271   .     S
N89    Zn108   2.096   .     S
N90    H91     0.834   .     S
O92    Zn108   2.240   .     S
O94    H95     0.920   .     S
O98    Zn288   2.088   .     S
O99    H100    0.867   .     S
O99    H101    0.818   .     S
O99    Zn108   2.125   .     S
O102   H103    0.855   .     S
O102   H104    0.831   .     S
O102   Zn108   2.071   .     S
O105   H106    0.838   .     S
O105   H107    0.870   .     S
O105   Zn108   2.125   .     S
Zn108  O278    2.088   .     S
C109   C111    1.478   .     S
C109   O128    1.245   .     S
C109   O129    1.275   .     S
C110   C112    1.470   .     S
C110   O130    1.308   .     S
C110   O132    1.212   .     S
C111   C112    1.372   .     S
C111   N125    1.372   .     S
C112   N126    1.364   .     S
C113   C114    1.473   .     S
C113   N126    1.354   .     S
C113   N125    1.321   .     S
C114   C115    1.386   .     S
C114   C123    1.406   .     S
C115   H116    0.931   .     S
C115   C117    1.376   .     S
C117   H118    1.001   .     S
C117   C119    1.374   .     S
C119   H120    0.952   .     S
C119   C121    1.375   .     S
C121   H122    0.911   .     S
C121   C123    1.391   .     S
C123   C124    1.503   .     S
C124   O133    1.247   .     S
C124   O134    1.271   .     S
N125   Zn144   2.096   .     S
N126   H127    0.834   .     S
O128   Zn144   2.240   .     S
O130   H131    0.920   .     S
O134   Zn252   2.088   .     S
O135   H136    0.867   .     S
O135   H137    0.818   .     S
O135   Zn144   2.125   .     S
O138   H139    0.855   .     S
O138   H140    0.831   .     S
O138   Zn144   2.071   .     S
O141   H142    0.838   .     S
O141   H143    0.870   .     S
O141   Zn144   2.125   .     S
Zn144  O242    2.088   .     S
C145   C147    1.478   .     S
C145   O164    1.245   .     S
C145   O165    1.275   .     S
C146   C148    1.470   .     S
C146   O166    1.308   .     S
C146   O168    1.212   .     S
C147   C148    1.372   .     S
C147   N161    1.372   .     S
C148   N162    1.364   .     S
C149   C150    1.473   .     S
C149   N162    1.354   .     S
C149   N161    1.321   .     S
C150   C151    1.386   .     S
C150   C159    1.406   .     S
C151   H152    0.931   .     S
C151   C153    1.376   .     S
C153   H154    1.001   .     S
C153   C155    1.374   .     S
C155   H156    0.952   .     S
C155   C157    1.375   .     S
C157   H158    0.911   .     S
C157   C159    1.391   .     S
C159   C160    1.503   .     S
C160   O169    1.247   .     S
C160   O170    1.271   .     S
N161   Zn180   2.096   .     S
N162   H163    0.834   .     S
O164   Zn180   2.240   .     S
O166   H167    0.920   .     S
O171   H172    0.867   .     S
O171   H173    0.818   .     S
O171   Zn180   2.125   .     S
O174   H175    0.855   .     S
O174   H176    0.831   .     S
O174   Zn180   2.071   .     S
O177   H178    0.838   .     S
O177   H179    0.870   .     S
O177   Zn180   2.125   .     S
C181   C183    1.478   .     S
C181   O200    1.245   .     S
C181   O201    1.275   .     S
C182   C184    1.470   .     S
C182   O202    1.308   .     S
C182   O204    1.212   .     S
C183   C184    1.372   .     S
C183   N197    1.372   .     S
C184   N198    1.364   .     S
C185   C186    1.473   .     S
C185   N198    1.354   .     S
C185   N197    1.321   .     S
C186   C187    1.386   .     S
C186   C195    1.406   .     S
C187   H188    0.931   .     S
C187   C189    1.376   .     S
C189   H190    1.001   .     S
C189   C191    1.374   .     S
C191   H192    0.952   .     S
C191   C193    1.375   .     S
C193   H194    0.911   .     S
C193   C195    1.391   .     S
C195   C196    1.503   .     S
C196   O205    1.247   .     S
C196   O206    1.271   .     S
N197   Zn216   2.096   .     S
N198   H199    0.834   .     S
O200   Zn216   2.240   .     S
O202   H203    0.920   .     S
O207   H208    0.867   .     S
O207   H209    0.818   .     S
O207   Zn216   2.125   .     S
O210   H211    0.855   .     S
O210   H212    0.831   .     S
O210   Zn216   2.071   .     S
O213   H214    0.838   .     S
O213   H215    0.870   .     S
O213   Zn216   2.125   .     S
C217   C219    1.478   .     S
C217   O236    1.245   .     S
C217   O237    1.275   .     S
C218   C220    1.470   .     S
C218   O238    1.308   .     S
C218   O240    1.212   .     S
C219   C220    1.372   .     S
C219   N233    1.372   .     S
C220   N234    1.364   .     S
C221   C222    1.473   .     S
C221   N234    1.354   .     S
C221   N233    1.321   .     S
C222   C223    1.386   .     S
C222   C231    1.406   .     S
C223   H224    0.931   .     S
C223   C225    1.376   .     S
C225   H226    1.001   .     S
C225   C227    1.374   .     S
C227   H228    0.952   .     S
C227   C229    1.375   .     S
C229   H230    0.911   .     S
C229   C231    1.391   .     S
C231   C232    1.503   .     S
C232   O241    1.247   .     S
C232   O242    1.271   .     S
N233   Zn252   2.096   .     S
N234   H235    0.834   .     S
O236   Zn252   2.240   .     S
O238   H239    0.920   .     S
O243   H244    0.867   .     S
O243   H245    0.818   .     S
O243   Zn252   2.125   .     S
O246   H247    0.855   .     S
O246   H248    0.831   .     S
O246   Zn252   2.071   .     S
O249   H250    0.838   .     S
O249   H251    0.870   .     S
O249   Zn252   2.125   .     S
C253   C255    1.478   .     S
C253   O272    1.245   .     S
C253   O273    1.275   .     S
C254   C256    1.470   .     S
C254   O274    1.308   .     S
C254   O276    1.212   .     S
C255   C256    1.372   .     S
C255   N269    1.372   .     S
C256   N270    1.364   .     S
C257   C258    1.473   .     S
C257   N270    1.354   .     S
C257   N269    1.321   .     S
C258   C259    1.386   .     S
C258   C267    1.406   .     S
C259   H260    0.931   .     S
C259   C261    1.376   .     S
C261   H262    1.001   .     S
C261   C263    1.374   .     S
C263   H264    0.952   .     S
C263   C265    1.375   .     S
C265   H266    0.911   .     S
C265   C267    1.391   .     S
C267   C268    1.503   .     S
C268   O277    1.247   .     S
C268   O278    1.271   .     S
N269   Zn288   2.096   .     S
N270   H271    0.834   .     S
O272   Zn288   2.240   .     S
O274   H275    0.920   .     S
O279   H280    0.867   .     S
O279   H281    0.818   .     S
O279   Zn288   2.125   .     S
O282   H283    0.855   .     S
O282   H284    0.831   .     S
O282   Zn288   2.071   .     S
O285   H286    0.838   .     S
O285   H287    0.870   .     S
O285   Zn288   2.125   .     S
