data_XUMPON_FSR
_audit_creation_date              2024-06-11
_audit_creation_method            'Materials Studio'
_symmetry_space_group_name_H-M    'P1'
_symmetry_Int_Tables_number       1
_symmetry_cell_setting            triclinic
loop_
_symmetry_equiv_pos_as_xyz
  x,y,z
_cell_length_a                    26.0710
_cell_length_b                    11.0521
_cell_length_c                    16.8163
_cell_angle_alpha                 90.0000
_cell_angle_beta                  137.1970
_cell_angle_gamma                 90.0000
loop_
_atom_site_label
_atom_site_type_symbol
_atom_site_fract_x
_atom_site_fract_y
_atom_site_fract_z
_atom_site_U_iso_or_equiv
_atom_site_adp_type
_atom_site_occupancy
C1     C     0.62995   0.52660  -0.31820   0.02438  Uani   1.00
C2     C     0.46490   0.54890  -0.40800   0.03006  Uani   1.00
C3     C     0.58704   0.43970  -0.31730   0.02090  Uani   1.00
C4     C     0.51821   0.44850  -0.35840   0.02265  Uani   1.00
C5     C     0.56427   0.26460  -0.29200   0.02038  Uani   1.00
C6     C     0.56703   0.13440  -0.26910   0.02390  Uani   1.00
C7     C     0.52265   0.05520  -0.36360   0.03782  Uani   1.00
H8     H     0.49060   0.08540  -0.43910   0.04500  Uiso   1.00
C9     C     0.52573  -0.06740  -0.34660   0.04705  Uani   1.00
H10    H     0.49620  -0.11950  -0.41050   0.05700  Uiso   1.00
C11    C     0.57185  -0.11290  -0.23640   0.04317  Uani   1.00
H12    H     0.57350  -0.19580  -0.22540   0.05200  Uiso   1.00
C13    C     0.61605  -0.03590  -0.14150   0.03511  Uani   1.00
H14    H     0.64750  -0.06790  -0.06670   0.04200  Uiso   1.00
C15    C     0.61458   0.08850  -0.15530   0.02316  Uani   1.00
C16    C     0.65993   0.17120  -0.05140   0.02460  Uani   1.00
Co17   Co    0.72205   0.30698  -0.21002   0.02437  Uani   1.00
N18    N     0.61537   0.32520  -0.27540   0.02080  Uani   1.00
N19    N     0.50480   0.33670  -0.34227   0.02225  Uani   1.00
H20    H     0.46530   0.31560  -0.36090   0.02700  Uiso   1.00
O21    O     0.69184   0.49111  -0.27494   0.02930  Uani   1.00
O22    O     0.60089   0.62925  -0.36518   0.03404  Uani   1.00
O23    O     0.47903   0.64881  -0.43179   0.03667  Uani   1.00
H24    H     0.51880   0.64120  -0.41110   0.05500  Uiso   1.00
O25    O     0.40977   0.53930  -0.42860   0.05454  Uani   1.00
O26    O     0.63365   0.27293  -0.06506   0.03054  Uani   1.00
O27    O     0.72235   0.13081   0.04582   0.02939  Uani   1.00
O28    O     0.66687   0.24020  -0.37396   0.03929  Uani   1.00
O29    O     0.82286   0.33300  -0.16327   0.03990  Uani   1.00
H30    H     0.81230   0.35920  -0.22270   0.06000  Uiso   1.00
H31    H     0.84440   0.26380  -0.14760   0.06000  Uiso   1.00
O32    O     0.75475   0.12736  -0.15083   0.03479  Uani   1.00
H33    H     0.74300   0.05770  -0.18480   0.08700  Uiso   1.00
H34    H     0.79720   0.13590  -0.06870   0.08700  Uiso   1.00
H35    H     0.69300   0.24400  -0.38900   0.08700  Uiso   1.00
H36    H     0.62300   0.27100  -0.43100   0.08700  Uiso   1.00
C37    C     0.12995   1.02660  -0.31820   0.02438  Uani   1.00
C38    C    -0.03510   1.04890  -0.40800   0.03006  Uani   1.00
C39    C     0.08704   0.93970  -0.31730   0.02090  Uani   1.00
C40    C     0.01821   0.94850  -0.35840   0.02265  Uani   1.00
C41    C     0.06427   0.76460  -0.29200   0.02038  Uani   1.00
C42    C     0.06703   0.63440  -0.26910   0.02390  Uani   1.00
C43    C     0.02265   0.55520  -0.36360   0.03782  Uani   1.00
H44    H    -0.00940   0.58540  -0.43910   0.04500  Uiso   1.00
C45    C     0.02573   0.43260  -0.34660   0.04705  Uani   1.00
H46    H    -0.00380   0.38050  -0.41050   0.05700  Uiso   1.00
C47    C     0.07185   0.38710  -0.23640   0.04317  Uani   1.00
H48    H     0.07350   0.30420  -0.22540   0.05200  Uiso   1.00
C49    C     0.11605   0.46410  -0.14150   0.03511  Uani   1.00
H50    H     0.14750   0.43210  -0.06670   0.04200  Uiso   1.00
C51    C     0.11458   0.58850  -0.15530   0.02316  Uani   1.00
C52    C     0.15993   0.67120  -0.05140   0.02460  Uani   1.00
Co53   Co    0.22205   0.80698  -0.21002   0.02437  Uani   1.00
N54    N     0.11537   0.82520  -0.27540   0.02080  Uani   1.00
N55    N     0.00480   0.83670  -0.34227   0.02225  Uani   1.00
H56    H    -0.03470   0.81560  -0.36090   0.02700  Uiso   1.00
O57    O     0.19184   0.99111  -0.27494   0.02930  Uani   1.00
O58    O     0.10089   1.12925  -0.36518   0.03404  Uani   1.00
O59    O    -0.02097   1.14881  -0.43179   0.03667  Uani   1.00
H60    H     0.01880   1.14120  -0.41110   0.05500  Uiso   1.00
O61    O    -0.09023   1.03930  -0.42860   0.05454  Uani   1.00
O62    O     0.13365   0.77293  -0.06506   0.03054  Uani   1.00
O63    O     0.22235   0.63081   0.04582   0.02939  Uani   1.00
O64    O     0.16687   0.74020  -0.37396   0.03929  Uani   1.00
O65    O     0.32286   0.83300  -0.16327   0.03990  Uani   1.00
H66    H     0.31230   0.85920  -0.22270   0.06000  Uiso   1.00
H67    H     0.34440   0.76380  -0.14760   0.06000  Uiso   1.00
O68    O     0.25475   0.62736  -0.15083   0.03479  Uani   1.00
H69    H     0.24300   0.55770  -0.18480   0.08700  Uiso   1.00
H70    H     0.29720   0.63590  -0.06870   0.08700  Uiso   1.00
H71    H     0.19300   0.74400  -0.38900   0.08700  Uiso   1.00
H72    H     0.12300   0.77100  -0.43100   0.08700  Uiso   1.00
C73    C     0.37005   0.52660   0.81820   0.02438  Uani   1.00
C74    C     0.53510   0.54890   0.90800   0.03006  Uani   1.00
C75    C     0.41296   0.43970   0.81730   0.02090  Uani   1.00
C76    C     0.48179   0.44850   0.85840   0.02265  Uani   1.00
C77    C     0.43573   0.26460   0.79200   0.02038  Uani   1.00
C78    C     0.43297   0.13440   0.76910   0.02390  Uani   1.00
C79    C     0.47735   0.05520   0.86360   0.03782  Uani   1.00
H80    H     0.50940   0.08540   0.93910   0.04500  Uiso   1.00
C81    C     0.47427  -0.06740   0.84660   0.04705  Uani   1.00
H82    H     0.50380  -0.11950   0.91050   0.05700  Uiso   1.00
C83    C     0.42815  -0.11290   0.73640   0.04317  Uani   1.00
H84    H     0.42650  -0.19580   0.72540   0.05200  Uiso   1.00
C85    C     0.38395  -0.03590   0.64150   0.03511  Uani   1.00
H86    H     0.35250  -0.06790   0.56670   0.04200  Uiso   1.00
C87    C     0.38542   0.08850   0.65530   0.02316  Uani   1.00
C88    C     0.34007   0.17120   0.55140   0.02460  Uani   1.00
Co89   Co    0.27795   0.30698   0.71002   0.02437  Uani   1.00
N90    N     0.38463   0.32520   0.77540   0.02080  Uani   1.00
N91    N     0.49520   0.33670   0.84227   0.02225  Uani   1.00
H92    H     0.53470   0.31560   0.86090   0.02700  Uiso   1.00
O93    O     0.30816   0.49111   0.77494   0.02930  Uani   1.00
O94    O     0.39911   0.62925   0.86518   0.03404  Uani   1.00
O95    O     0.52097   0.64881   0.93179   0.03667  Uani   1.00
H96    H     0.48120   0.64120   0.91110   0.05500  Uiso   1.00
O97    O     0.59023   0.53930   0.92860   0.05454  Uani   1.00
O98    O     0.36635   0.27293   0.56506   0.03054  Uani   1.00
O99    O     0.27765   0.13081   0.45418   0.02939  Uani   1.00
O100   O     0.33313   0.24020   0.87396   0.03929  Uani   1.00
O101   O     0.17714   0.33300   0.66327   0.03990  Uani   1.00
H102   H     0.18770   0.35920   0.72270   0.06000  Uiso   1.00
H103   H     0.15560   0.26380   0.64760   0.06000  Uiso   1.00
O104   O     0.24525   0.12736   0.65083   0.03479  Uani   1.00
H105   H     0.25700   0.05770   0.68480   0.08700  Uiso   1.00
H106   H     0.20280   0.13590   0.56870   0.08700  Uiso   1.00
H107   H     0.30700   0.24400   0.88900   0.08700  Uiso   1.00
H108   H     0.37700   0.27100   0.93100   0.08700  Uiso   1.00
C109   C     0.87005   1.02660   0.81820   0.02438  Uani   1.00
C110   C     1.03510   1.04890   0.90800   0.03006  Uani   1.00
C111   C     0.91296   0.93970   0.81730   0.02090  Uani   1.00
C112   C     0.98179   0.94850   0.85840   0.02265  Uani   1.00
C113   C     0.93573   0.76460   0.79200   0.02038  Uani   1.00
C114   C     0.93297   0.63440   0.76910   0.02390  Uani   1.00
C115   C     0.97735   0.55520   0.86360   0.03782  Uani   1.00
H116   H     1.00940   0.58540   0.93910   0.04500  Uiso   1.00
C117   C     0.97427   0.43260   0.84660   0.04705  Uani   1.00
H118   H     1.00380   0.38050   0.91050   0.05700  Uiso   1.00
C119   C     0.92815   0.38710   0.73640   0.04317  Uani   1.00
H120   H     0.92650   0.30420   0.72540   0.05200  Uiso   1.00
C121   C     0.88395   0.46410   0.64150   0.03511  Uani   1.00
H122   H     0.85250   0.43210   0.56670   0.04200  Uiso   1.00
C123   C     0.88542   0.58850   0.65530   0.02316  Uani   1.00
C124   C     0.84007   0.67120   0.55140   0.02460  Uani   1.00
Co125  Co    0.77795   0.80698   0.71002   0.02437  Uani   1.00
N126   N     0.88463   0.82520   0.77540   0.02080  Uani   1.00
N127   N     0.99520   0.83670   0.84227   0.02225  Uani   1.00
H128   H     1.03470   0.81560   0.86090   0.02700  Uiso   1.00
O129   O     0.80816   0.99111   0.77494   0.02930  Uani   1.00
O130   O     0.89911   1.12925   0.86518   0.03404  Uani   1.00
O131   O     1.02097   1.14881   0.93179   0.03667  Uani   1.00
H132   H     0.98120   1.14120   0.91110   0.05500  Uiso   1.00
O133   O     1.09023   1.03930   0.92860   0.05454  Uani   1.00
O134   O     0.86635   0.77293   0.56506   0.03054  Uani   1.00
O135   O     0.77765   0.63081   0.45418   0.02939  Uani   1.00
O136   O     0.83313   0.74020   0.87396   0.03929  Uani   1.00
O137   O     0.67714   0.83300   0.66327   0.03990  Uani   1.00
H138   H     0.68770   0.85920   0.72270   0.06000  Uiso   1.00
H139   H     0.65560   0.76380   0.64760   0.06000  Uiso   1.00
O140   O     0.74525   0.62736   0.65083   0.03479  Uani   1.00
H141   H     0.75700   0.55770   0.68480   0.08700  Uiso   1.00
H142   H     0.70280   0.63590   0.56870   0.08700  Uiso   1.00
H143   H     0.80700   0.74400   0.88900   0.08700  Uiso   1.00
H144   H     0.87700   0.77100   0.93100   0.08700  Uiso   1.00
C145   C     0.37005   0.47340   0.31820   0.02438  Uani   1.00
C146   C     0.53510   0.45110   0.40800   0.03006  Uani   1.00
C147   C     0.41296   0.56030   0.31730   0.02090  Uani   1.00
C148   C     0.48179   0.55150   0.35840   0.02265  Uani   1.00
C149   C     0.43573   0.73540   0.29200   0.02038  Uani   1.00
C150   C     0.43297   0.86560   0.26910   0.02390  Uani   1.00
C151   C     0.47735   0.94480   0.36360   0.03782  Uani   1.00
H152   H     0.50940   0.91460   0.43910   0.04500  Uiso   1.00
C153   C     0.47427   1.06740   0.34660   0.04705  Uani   1.00
H154   H     0.50380   1.11950   0.41050   0.05700  Uiso   1.00
C155   C     0.42815   1.11290   0.23640   0.04317  Uani   1.00
H156   H     0.42650   1.19580   0.22540   0.05200  Uiso   1.00
C157   C     0.38395   1.03590   0.14150   0.03511  Uani   1.00
H158   H     0.35250   1.06790   0.06670   0.04200  Uiso   1.00
C159   C     0.38542   0.91150   0.15530   0.02316  Uani   1.00
C160   C     0.34007   0.82880   0.05140   0.02460  Uani   1.00
Co161  Co    0.27795   0.69302   0.21002   0.02437  Uani   1.00
N162   N     0.38463   0.67480   0.27540   0.02080  Uani   1.00
N163   N     0.49520   0.66330   0.34227   0.02225  Uani   1.00
H164   H     0.53470   0.68440   0.36090   0.02700  Uiso   1.00
O165   O     0.30816   0.50889   0.27494   0.02930  Uani   1.00
O166   O     0.39911   0.37075   0.36518   0.03404  Uani   1.00
O167   O     0.52097   0.35119   0.43179   0.03667  Uani   1.00
H168   H     0.48120   0.35880   0.41110   0.05500  Uiso   1.00
O169   O     0.59023   0.46070   0.42860   0.05454  Uani   1.00
O170   O     0.36635   0.72707   0.06506   0.03054  Uani   1.00
O171   O     0.27765   0.86919  -0.04582   0.02939  Uani   1.00
O172   O     0.33313   0.75980   0.37396   0.03929  Uani   1.00
O173   O     0.17714   0.66700   0.16327   0.03990  Uani   1.00
H174   H     0.18770   0.64080   0.22270   0.06000  Uiso   1.00
H175   H     0.15560   0.73620   0.14760   0.06000  Uiso   1.00
O176   O     0.24525   0.87264   0.15083   0.03479  Uani   1.00
H177   H     0.25700   0.94230   0.18480   0.08700  Uiso   1.00
H178   H     0.20280   0.86410   0.06870   0.08700  Uiso   1.00
H179   H     0.30700   0.75600   0.38900   0.08700  Uiso   1.00
H180   H     0.37700   0.72900   0.43100   0.08700  Uiso   1.00
C181   C     0.87005  -0.02660   0.31820   0.02438  Uani   1.00
C182   C     1.03510  -0.04890   0.40800   0.03006  Uani   1.00
C183   C     0.91296   0.06030   0.31730   0.02090  Uani   1.00
C184   C     0.98179   0.05150   0.35840   0.02265  Uani   1.00
C185   C     0.93573   0.23540   0.29200   0.02038  Uani   1.00
C186   C     0.93297   0.36560   0.26910   0.02390  Uani   1.00
C187   C     0.97735   0.44480   0.36360   0.03782  Uani   1.00
H188   H     1.00940   0.41460   0.43910   0.04500  Uiso   1.00
C189   C     0.97427   0.56740   0.34660   0.04705  Uani   1.00
H190   H     1.00380   0.61950   0.41050   0.05700  Uiso   1.00
C191   C     0.92815   0.61290   0.23640   0.04317  Uani   1.00
H192   H     0.92650   0.69580   0.22540   0.05200  Uiso   1.00
C193   C     0.88395   0.53590   0.14150   0.03511  Uani   1.00
H194   H     0.85250   0.56790   0.06670   0.04200  Uiso   1.00
C195   C     0.88542   0.41150   0.15530   0.02316  Uani   1.00
C196   C     0.84007   0.32880   0.05140   0.02460  Uani   1.00
Co197  Co    0.77795   0.19302   0.21002   0.02437  Uani   1.00
N198   N     0.88463   0.17480   0.27540   0.02080  Uani   1.00
N199   N     0.99520   0.16330   0.34227   0.02225  Uani   1.00
H200   H     1.03470   0.18440   0.36090   0.02700  Uiso   1.00
O201   O     0.80816   0.00889   0.27494   0.02930  Uani   1.00
O202   O     0.89911  -0.12925   0.36518   0.03404  Uani   1.00
O203   O     1.02097  -0.14881   0.43179   0.03667  Uani   1.00
H204   H     0.98120  -0.14120   0.41110   0.05500  Uiso   1.00
O205   O     1.09023  -0.03930   0.42860   0.05454  Uani   1.00
O206   O     0.86635   0.22707   0.06506   0.03054  Uani   1.00
O207   O     0.77765   0.36919  -0.04582   0.02939  Uani   1.00
O208   O     0.83313   0.25980   0.37396   0.03929  Uani   1.00
O209   O     0.67714   0.16700   0.16327   0.03990  Uani   1.00
H210   H     0.68770   0.14080   0.22270   0.06000  Uiso   1.00
H211   H     0.65560   0.23620   0.14760   0.06000  Uiso   1.00
O212   O     0.74525   0.37264   0.15083   0.03479  Uani   1.00
H213   H     0.75700   0.44230   0.18480   0.08700  Uiso   1.00
H214   H     0.70280   0.36410   0.06870   0.08700  Uiso   1.00
H215   H     0.80700   0.25600   0.38900   0.08700  Uiso   1.00
H216   H     0.87700   0.22900   0.43100   0.08700  Uiso   1.00
C217   C     0.62995   0.47340   0.18180   0.02438  Uani   1.00
C218   C     0.46490   0.45110   0.09200   0.03006  Uani   1.00
C219   C     0.58704   0.56030   0.18270   0.02090  Uani   1.00
C220   C     0.51821   0.55150   0.14160   0.02265  Uani   1.00
C221   C     0.56427   0.73540   0.20800   0.02038  Uani   1.00
C222   C     0.56703   0.86560   0.23090   0.02390  Uani   1.00
C223   C     0.52265   0.94480   0.13640   0.03782  Uani   1.00
H224   H     0.49060   0.91460   0.06090   0.04500  Uiso   1.00
C225   C     0.52573   1.06740   0.15340   0.04705  Uani   1.00
H226   H     0.49620   1.11950   0.08950   0.05700  Uiso   1.00
C227   C     0.57185   1.11290   0.26360   0.04317  Uani   1.00
H228   H     0.57350   1.19580   0.27460   0.05200  Uiso   1.00
C229   C     0.61605   1.03590   0.35850   0.03511  Uani   1.00
H230   H     0.64750   1.06790   0.43330   0.04200  Uiso   1.00
C231   C     0.61458   0.91150   0.34470   0.02316  Uani   1.00
C232   C     0.65993   0.82880   0.44860   0.02460  Uani   1.00
Co233  Co    0.72205   0.69302   0.28998   0.02437  Uani   1.00
N234   N     0.61537   0.67480   0.22460   0.02080  Uani   1.00
N235   N     0.50480   0.66330   0.15773   0.02225  Uani   1.00
H236   H     0.46530   0.68440   0.13910   0.02700  Uiso   1.00
O237   O     0.69184   0.50889   0.22506   0.02930  Uani   1.00
O238   O     0.60089   0.37075   0.13482   0.03404  Uani   1.00
O239   O     0.47903   0.35119   0.06821   0.03667  Uani   1.00
H240   H     0.51880   0.35880   0.08890   0.05500  Uiso   1.00
O241   O     0.40977   0.46070   0.07140   0.05454  Uani   1.00
O242   O     0.63365   0.72707   0.43494   0.03054  Uani   1.00
O243   O     0.72235   0.86919   0.54582   0.02939  Uani   1.00
O244   O     0.66687   0.75980   0.12604   0.03929  Uani   1.00
O245   O     0.82286   0.66700   0.33673   0.03990  Uani   1.00
H246   H     0.81230   0.64080   0.27730   0.06000  Uiso   1.00
H247   H     0.84440   0.73620   0.35240   0.06000  Uiso   1.00
O248   O     0.75475   0.87264   0.34917   0.03479  Uani   1.00
H249   H     0.74300   0.94230   0.31520   0.08700  Uiso   1.00
H250   H     0.79720   0.86410   0.43130   0.08700  Uiso   1.00
H251   H     0.69300   0.75600   0.11100   0.08700  Uiso   1.00
H252   H     0.62300   0.72900   0.06900   0.08700  Uiso   1.00
C253   C     0.12995  -0.02660   0.18180   0.02438  Uani   1.00
C254   C    -0.03510  -0.04890   0.09200   0.03006  Uani   1.00
C255   C     0.08704   0.06030   0.18270   0.02090  Uani   1.00
C256   C     0.01821   0.05150   0.14160   0.02265  Uani   1.00
C257   C     0.06427   0.23540   0.20800   0.02038  Uani   1.00
C258   C     0.06703   0.36560   0.23090   0.02390  Uani   1.00
C259   C     0.02265   0.44480   0.13640   0.03782  Uani   1.00
H260   H    -0.00940   0.41460   0.06090   0.04500  Uiso   1.00
C261   C     0.02573   0.56740   0.15340   0.04705  Uani   1.00
H262   H    -0.00380   0.61950   0.08950   0.05700  Uiso   1.00
C263   C     0.07185   0.61290   0.26360   0.04317  Uani   1.00
H264   H     0.07350   0.69580   0.27460   0.05200  Uiso   1.00
C265   C     0.11605   0.53590   0.35850   0.03511  Uani   1.00
H266   H     0.14750   0.56790   0.43330   0.04200  Uiso   1.00
C267   C     0.11458   0.41150   0.34470   0.02316  Uani   1.00
C268   C     0.15993   0.32880   0.44860   0.02460  Uani   1.00
Co269  Co    0.22205   0.19302   0.28998   0.02437  Uani   1.00
N270   N     0.11537   0.17480   0.22460   0.02080  Uani   1.00
N271   N     0.00480   0.16330   0.15773   0.02225  Uani   1.00
H272   H    -0.03470   0.18440   0.13910   0.02700  Uiso   1.00
O273   O     0.19184   0.00889   0.22506   0.02930  Uani   1.00
O274   O     0.10089  -0.12925   0.13482   0.03404  Uani   1.00
O275   O    -0.02097  -0.14881   0.06821   0.03667  Uani   1.00
H276   H     0.01880  -0.14120   0.08890   0.05500  Uiso   1.00
O277   O    -0.09023  -0.03930   0.07140   0.05454  Uani   1.00
O278   O     0.13365   0.22707   0.43494   0.03054  Uani   1.00
O279   O     0.22235   0.36919   0.54582   0.02939  Uani   1.00
O280   O     0.16687   0.25980   0.12604   0.03929  Uani   1.00
O281   O     0.32286   0.16700   0.33673   0.03990  Uani   1.00
H282   H     0.31230   0.14080   0.27730   0.06000  Uiso   1.00
H283   H     0.34440   0.23620   0.35240   0.06000  Uiso   1.00
O284   O     0.25475   0.37264   0.34917   0.03479  Uani   1.00
H285   H     0.24300   0.44230   0.31520   0.08700  Uiso   1.00
H286   H     0.29720   0.36410   0.43130   0.08700  Uiso   1.00
H287   H     0.19300   0.25600   0.11100   0.08700  Uiso   1.00
H288   H     0.12300   0.22900   0.06900   0.08700  Uiso   1.00
loop_
_atom_site_aniso_label
_atom_site_aniso_U_11
_atom_site_aniso_U_22
_atom_site_aniso_U_33
_atom_site_aniso_U_12
_atom_site_aniso_U_13
_atom_site_aniso_U_23
C1        0.02420   0.02410   0.02310  -0.00130   0.01680   0.00040
C2        0.02590   0.02610   0.03230   0.00240   0.01950   0.00180
C3        0.01990   0.02160   0.01830  -0.00180   0.01310  -0.00160
C4        0.02010   0.02350   0.02390   0.00140   0.01600   0.00120
C5        0.01950   0.02150   0.01920  -0.00010   0.01390  -0.00100
C6        0.02170   0.02250   0.02890  -0.00150   0.01900  -0.00050
C7        0.04080   0.03160   0.03060  -0.00580   0.02290  -0.00600
C9        0.05210   0.02700   0.04800  -0.01200   0.03230  -0.01320
C11       0.04630   0.01770   0.05800  -0.00190   0.03590   0.00170
C13       0.03220   0.02450   0.03960   0.00550   0.02350   0.00840
C15       0.02050   0.02150   0.02850   0.00240   0.01830   0.00070
C16       0.02470   0.02410   0.03200   0.00190   0.02300   0.00320
Co17      0.02130   0.02670   0.02600   0.00374   0.01763   0.00210
N18       0.01970   0.01980   0.02300   0.00010   0.01570   0.00020
N19       0.01890   0.02270   0.02550  -0.00100   0.01640   0.00010
O21       0.02410   0.02870   0.03830   0.00250   0.02390   0.00620
O22       0.03010   0.02540   0.04480   0.00350   0.02690   0.01150
O23       0.03050   0.02590   0.05060   0.00520   0.02880   0.00640
O25       0.04230   0.04410   0.09050   0.01290   0.05290   0.01550
O26       0.02360   0.03140   0.02710   0.00680   0.01560  -0.00060
O27       0.02550   0.03220   0.02250   0.00940   0.01510   0.00350
O28       0.03650   0.04690   0.03310   0.00840   0.02510   0.00280
O29       0.03570   0.04380   0.04820   0.00820   0.03330   0.00410
O32       0.03610   0.02750   0.03490   0.00400   0.02420   0.00040
C37       0.02420   0.02410   0.02310  -0.00130   0.01680   0.00040
C38       0.02590   0.02610   0.03230   0.00240   0.01950   0.00180
C39       0.01990   0.02160   0.01830  -0.00180   0.01310  -0.00160
C40       0.02010   0.02350   0.02390   0.00140   0.01600   0.00120
C41       0.01950   0.02150   0.01920  -0.00010   0.01390  -0.00100
C42       0.02170   0.02250   0.02890  -0.00150   0.01900  -0.00050
C43       0.04080   0.03160   0.03060  -0.00580   0.02290  -0.00600
C45       0.05210   0.02700   0.04800  -0.01200   0.03230  -0.01320
C47       0.04630   0.01770   0.05800  -0.00190   0.03590   0.00170
C49       0.03220   0.02450   0.03960   0.00550   0.02350   0.00840
C51       0.02050   0.02150   0.02850   0.00240   0.01830   0.00070
C52       0.02470   0.02410   0.03200   0.00190   0.02300   0.00320
Co53      0.02130   0.02670   0.02600   0.00374   0.01763   0.00210
N54       0.01970   0.01980   0.02300   0.00010   0.01570   0.00020
N55       0.01890   0.02270   0.02550  -0.00100   0.01640   0.00010
O57       0.02410   0.02870   0.03830   0.00250   0.02390   0.00620
O58       0.03010   0.02540   0.04480   0.00350   0.02690   0.01150
O59       0.03050   0.02590   0.05060   0.00520   0.02880   0.00640
O61       0.04230   0.04410   0.09050   0.01290   0.05290   0.01550
O62       0.02360   0.03140   0.02710   0.00680   0.01560  -0.00060
O63       0.02550   0.03220   0.02250   0.00940   0.01510   0.00350
O64       0.03650   0.04690   0.03310   0.00840   0.02510   0.00280
O65       0.03570   0.04380   0.04820   0.00820   0.03330   0.00410
O68       0.03610   0.02750   0.03490   0.00400   0.02420   0.00040
C73       0.02420   0.02410   0.02310   0.00130   0.01680  -0.00040
C74       0.02590   0.02610   0.03230  -0.00240   0.01950  -0.00180
C75       0.01990   0.02160   0.01830   0.00180   0.01310   0.00160
C76       0.02010   0.02350   0.02390  -0.00140   0.01600  -0.00120
C77       0.01950   0.02150   0.01920   0.00010   0.01390   0.00100
C78       0.02170   0.02250   0.02890   0.00150   0.01900   0.00050
C79       0.04080   0.03160   0.03060   0.00580   0.02290   0.00600
C81       0.05210   0.02700   0.04800   0.01200   0.03230   0.01320
C83       0.04630   0.01770   0.05800   0.00190   0.03590  -0.00170
C85       0.03220   0.02450   0.03960  -0.00550   0.02350  -0.00840
C87       0.02050   0.02150   0.02850  -0.00240   0.01830  -0.00070
C88       0.02470   0.02410   0.03200  -0.00190   0.02300  -0.00320
Co89      0.02130   0.02670   0.02600  -0.00374   0.01763  -0.00210
N90       0.01970   0.01980   0.02300  -0.00010   0.01570  -0.00020
N91       0.01890   0.02270   0.02550   0.00100   0.01640  -0.00010
O93       0.02410   0.02870   0.03830  -0.00250   0.02390  -0.00620
O94       0.03010   0.02540   0.04480  -0.00350   0.02690  -0.01150
O95       0.03050   0.02590   0.05060  -0.00520   0.02880  -0.00640
O97       0.04230   0.04410   0.09050  -0.01290   0.05290  -0.01550
O98       0.02360   0.03140   0.02710  -0.00680   0.01560   0.00060
O99       0.02550   0.03220   0.02250  -0.00940   0.01510  -0.00350
O100      0.03650   0.04690   0.03310  -0.00840   0.02510  -0.00280
O101      0.03570   0.04380   0.04820  -0.00820   0.03330  -0.00410
O104      0.03610   0.02750   0.03490  -0.00400   0.02420  -0.00040
C109      0.02420   0.02410   0.02310   0.00130   0.01680  -0.00040
C110      0.02590   0.02610   0.03230  -0.00240   0.01950  -0.00180
C111      0.01990   0.02160   0.01830   0.00180   0.01310   0.00160
C112      0.02010   0.02350   0.02390  -0.00140   0.01600  -0.00120
C113      0.01950   0.02150   0.01920   0.00010   0.01390   0.00100
C114      0.02170   0.02250   0.02890   0.00150   0.01900   0.00050
C115      0.04080   0.03160   0.03060   0.00580   0.02290   0.00600
C117      0.05210   0.02700   0.04800   0.01200   0.03230   0.01320
C119      0.04630   0.01770   0.05800   0.00190   0.03590  -0.00170
C121      0.03220   0.02450   0.03960  -0.00550   0.02350  -0.00840
C123      0.02050   0.02150   0.02850  -0.00240   0.01830  -0.00070
C124      0.02470   0.02410   0.03200  -0.00190   0.02300  -0.00320
Co125     0.02130   0.02670   0.02600  -0.00374   0.01763  -0.00210
N126      0.01970   0.01980   0.02300  -0.00010   0.01570  -0.00020
N127      0.01890   0.02270   0.02550   0.00100   0.01640  -0.00010
O129      0.02410   0.02870   0.03830  -0.00250   0.02390  -0.00620
O130      0.03010   0.02540   0.04480  -0.00350   0.02690  -0.01150
O131      0.03050   0.02590   0.05060  -0.00520   0.02880  -0.00640
O133      0.04230   0.04410   0.09050  -0.01290   0.05290  -0.01550
O134      0.02360   0.03140   0.02710  -0.00680   0.01560   0.00060
O135      0.02550   0.03220   0.02250  -0.00940   0.01510  -0.00350
O136      0.03650   0.04690   0.03310  -0.00840   0.02510  -0.00280
O137      0.03570   0.04380   0.04820  -0.00820   0.03330  -0.00410
O140      0.03610   0.02750   0.03490  -0.00400   0.02420  -0.00040
C145      0.02420   0.02410   0.02310  -0.00130   0.01680   0.00040
C146      0.02590   0.02610   0.03230   0.00240   0.01950   0.00180
C147      0.01990   0.02160   0.01830  -0.00180   0.01310  -0.00160
C148      0.02010   0.02350   0.02390   0.00140   0.01600   0.00120
C149      0.01950   0.02150   0.01920  -0.00010   0.01390  -0.00100
C150      0.02170   0.02250   0.02890  -0.00150   0.01900  -0.00050
C151      0.04080   0.03160   0.03060  -0.00580   0.02290  -0.00600
C153      0.05210   0.02700   0.04800  -0.01200   0.03230  -0.01320
C155      0.04630   0.01770   0.05800  -0.00190   0.03590   0.00170
C157      0.03220   0.02450   0.03960   0.00550   0.02350   0.00840
C159      0.02050   0.02150   0.02850   0.00240   0.01830   0.00070
C160      0.02470   0.02410   0.03200   0.00190   0.02300   0.00320
Co161     0.02130   0.02670   0.02600   0.00374   0.01763   0.00210
N162      0.01970   0.01980   0.02300   0.00010   0.01570   0.00020
N163      0.01890   0.02270   0.02550  -0.00100   0.01640   0.00010
O165      0.02410   0.02870   0.03830   0.00250   0.02390   0.00620
O166      0.03010   0.02540   0.04480   0.00350   0.02690   0.01150
O167      0.03050   0.02590   0.05060   0.00520   0.02880   0.00640
O169      0.04230   0.04410   0.09050   0.01290   0.05290   0.01550
O170      0.02360   0.03140   0.02710   0.00680   0.01560  -0.00060
O171      0.02550   0.03220   0.02250   0.00940   0.01510   0.00350
O172      0.03650   0.04690   0.03310   0.00840   0.02510   0.00280
O173      0.03570   0.04380   0.04820   0.00820   0.03330   0.00410
O176      0.03610   0.02750   0.03490   0.00400   0.02420   0.00040
C181      0.02420   0.02410   0.02310  -0.00130   0.01680   0.00040
C182      0.02590   0.02610   0.03230   0.00240   0.01950   0.00180
C183      0.01990   0.02160   0.01830  -0.00180   0.01310  -0.00160
C184      0.02010   0.02350   0.02390   0.00140   0.01600   0.00120
C185      0.01950   0.02150   0.01920  -0.00010   0.01390  -0.00100
C186      0.02170   0.02250   0.02890  -0.00150   0.01900  -0.00050
C187      0.04080   0.03160   0.03060  -0.00580   0.02290  -0.00600
C189      0.05210   0.02700   0.04800  -0.01200   0.03230  -0.01320
C191      0.04630   0.01770   0.05800  -0.00190   0.03590   0.00170
C193      0.03220   0.02450   0.03960   0.00550   0.02350   0.00840
C195      0.02050   0.02150   0.02850   0.00240   0.01830   0.00070
C196      0.02470   0.02410   0.03200   0.00190   0.02300   0.00320
Co197     0.02130   0.02670   0.02600   0.00374   0.01763   0.00210
N198      0.01970   0.01980   0.02300   0.00010   0.01570   0.00020
N199      0.01890   0.02270   0.02550  -0.00100   0.01640   0.00010
O201      0.02410   0.02870   0.03830   0.00250   0.02390   0.00620
O202      0.03010   0.02540   0.04480   0.00350   0.02690   0.01150
O203      0.03050   0.02590   0.05060   0.00520   0.02880   0.00640
O205      0.04230   0.04410   0.09050   0.01290   0.05290   0.01550
O206      0.02360   0.03140   0.02710   0.00680   0.01560  -0.00060
O207      0.02550   0.03220   0.02250   0.00940   0.01510   0.00350
O208      0.03650   0.04690   0.03310   0.00840   0.02510   0.00280
O209      0.03570   0.04380   0.04820   0.00820   0.03330   0.00410
O212      0.03610   0.02750   0.03490   0.00400   0.02420   0.00040
C217      0.02420   0.02410   0.02310   0.00130   0.01680  -0.00040
C218      0.02590   0.02610   0.03230  -0.00240   0.01950  -0.00180
C219      0.01990   0.02160   0.01830   0.00180   0.01310   0.00160
C220      0.02010   0.02350   0.02390  -0.00140   0.01600  -0.00120
C221      0.01950   0.02150   0.01920   0.00010   0.01390   0.00100
C222      0.02170   0.02250   0.02890   0.00150   0.01900   0.00050
C223      0.04080   0.03160   0.03060   0.00580   0.02290   0.00600
C225      0.05210   0.02700   0.04800   0.01200   0.03230   0.01320
C227      0.04630   0.01770   0.05800   0.00190   0.03590  -0.00170
C229      0.03220   0.02450   0.03960  -0.00550   0.02350  -0.00840
C231      0.02050   0.02150   0.02850  -0.00240   0.01830  -0.00070
C232      0.02470   0.02410   0.03200  -0.00190   0.02300  -0.00320
Co233     0.02130   0.02670   0.02600  -0.00374   0.01763  -0.00210
N234      0.01970   0.01980   0.02300  -0.00010   0.01570  -0.00020
N235      0.01890   0.02270   0.02550   0.00100   0.01640  -0.00010
O237      0.02410   0.02870   0.03830  -0.00250   0.02390  -0.00620
O238      0.03010   0.02540   0.04480  -0.00350   0.02690  -0.01150
O239      0.03050   0.02590   0.05060  -0.00520   0.02880  -0.00640
O241      0.04230   0.04410   0.09050  -0.01290   0.05290  -0.01550
O242      0.02360   0.03140   0.02710  -0.00680   0.01560   0.00060
O243      0.02550   0.03220   0.02250  -0.00940   0.01510  -0.00350
O244      0.03650   0.04690   0.03310  -0.00840   0.02510  -0.00280
O245      0.03570   0.04380   0.04820  -0.00820   0.03330  -0.00410
O248      0.03610   0.02750   0.03490  -0.00400   0.02420  -0.00040
C253      0.02420   0.02410   0.02310   0.00130   0.01680  -0.00040
C254      0.02590   0.02610   0.03230  -0.00240   0.01950  -0.00180
C255      0.01990   0.02160   0.01830   0.00180   0.01310   0.00160
C256      0.02010   0.02350   0.02390  -0.00140   0.01600  -0.00120
C257      0.01950   0.02150   0.01920   0.00010   0.01390   0.00100
C258      0.02170   0.02250   0.02890   0.00150   0.01900   0.00050
C259      0.04080   0.03160   0.03060   0.00580   0.02290   0.00600
C261      0.05210   0.02700   0.04800   0.01200   0.03230   0.01320
C263      0.04630   0.01770   0.05800   0.00190   0.03590  -0.00170
C265      0.03220   0.02450   0.03960  -0.00550   0.02350  -0.00840
C267      0.02050   0.02150   0.02850  -0.00240   0.01830  -0.00070
C268      0.02470   0.02410   0.03200  -0.00190   0.02300  -0.00320
Co269     0.02130   0.02670   0.02600  -0.00374   0.01763  -0.00210
N270      0.01970   0.01980   0.02300  -0.00010   0.01570  -0.00020
N271      0.01890   0.02270   0.02550   0.00100   0.01640  -0.00010
O273      0.02410   0.02870   0.03830  -0.00250   0.02390  -0.00620
O274      0.03010   0.02540   0.04480  -0.00350   0.02690  -0.01150
O275      0.03050   0.02590   0.05060  -0.00520   0.02880  -0.00640
O277      0.04230   0.04410   0.09050  -0.01290   0.05290  -0.01550
O278      0.02360   0.03140   0.02710  -0.00680   0.01560   0.00060
O279      0.02550   0.03220   0.02250  -0.00940   0.01510  -0.00350
O280      0.03650   0.04690   0.03310  -0.00840   0.02510  -0.00280
O281      0.03570   0.04380   0.04820  -0.00820   0.03330  -0.00410
O284      0.03610   0.02750   0.03490  -0.00400   0.02420  -0.00040
loop_
_geom_bond_atom_site_label_1
_geom_bond_atom_site_label_2
_geom_bond_distance
_geom_bond_site_symmetry_2
_ccdc_geom_bond_type
C1     C3      1.483   .     S
C1     O21     1.251   .     S
C1     O22     1.268   .     S
C2     C4      1.469   .     S
C2     O23     1.316   .     S
C2     O25     1.211   .     S
C3     C4      1.374   .     S
C3     N18     1.371   .     S
C4     N19     1.364   .     S
C5     C6      1.478   .     S
C5     N19     1.353   .     S
C5     N18     1.325   .     S
C6     C7      1.390   .     S
C6     C15     1.405   .     S
C7     H8      0.930   .     S
C7     C9      1.375   .     S
C9     H10     0.930   .     S
C9     C11     1.365   .     S
C11    H12     0.929   .     S
C11    C13     1.379   .     S
C13    H14     0.931   .     S
C13    C15     1.390   .     S
C15    C16     1.502   .     S
C16    O26     1.247   .     S
C16    O27     1.271   .     S
Co17   N18     2.121   .     S
Co17   O28     2.096   .     S
Co17   O29     2.139   .     S
Co17   O32     2.101   .     S
Co17   O207    2.080   .     S
Co17   O21     2.166   .     S
N19    H20     0.860   .     S
O23    H24     0.821   .     S
O27    Co197   2.080   .     S
O28    H35     0.885   .     S
O28    H36     0.857   .     S
O29    H30     0.869   .     S
O29    H31     0.868   .     S
O32    H33     0.870   .     S
O32    H34     0.948   .     S
C37    C39     1.483   .     S
C37    O57     1.251   .     S
C37    O58     1.268   .     S
C38    C40     1.469   .     S
C38    O59     1.316   .     S
C38    O61     1.211   .     S
C39    C40     1.374   .     S
C39    N54     1.371   .     S
C40    N55     1.364   .     S
C41    C42     1.478   .     S
C41    N55     1.353   .     S
C41    N54     1.325   .     S
C42    C43     1.390   .     S
C42    C51     1.405   .     S
C43    H44     0.930   .     S
C43    C45     1.375   .     S
C45    H46     0.930   .     S
C45    C47     1.365   .     S
C47    H48     0.929   .     S
C47    C49     1.379   .     S
C49    H50     0.931   .     S
C49    C51     1.390   .     S
C51    C52     1.502   .     S
C52    O62     1.247   .     S
C52    O63     1.271   .     S
Co53   N54     2.121   .     S
Co53   O64     2.096   .     S
Co53   O65     2.139   .     S
Co53   O68     2.101   .     S
Co53   O171    2.080   .     S
Co53   O57     2.166   .     S
N55    H56     0.860   .     S
O59    H60     0.821   .     S
O63    Co161   2.080   .     S
O64    H71     0.885   .     S
O64    H72     0.857   .     S
O65    H66     0.869   .     S
O65    H67     0.868   .     S
O68    H69     0.870   .     S
O68    H70     0.948   .     S
C73    C75     1.483   .     S
C73    O93     1.251   .     S
C73    O94     1.268   .     S
C74    C76     1.469   .     S
C74    O95     1.316   .     S
C74    O97     1.211   .     S
C75    C76     1.374   .     S
C75    N90     1.371   .     S
C76    N91     1.364   .     S
C77    C78     1.478   .     S
C77    N91     1.353   .     S
C77    N90     1.325   .     S
C78    C79     1.390   .     S
C78    C87     1.405   .     S
C79    H80     0.930   .     S
C79    C81     1.375   .     S
C81    H82     0.930   .     S
C81    C83     1.365   .     S
C83    H84     0.929   .     S
C83    C85     1.379   .     S
C85    H86     0.931   .     S
C85    C87     1.390   .     S
C87    C88     1.502   .     S
C88    O98     1.247   .     S
C88    O99     1.271   .     S
Co89   N90     2.121   .     S
Co89   O100    2.096   .     S
Co89   O101    2.139   .     S
Co89   O104    2.101   .     S
Co89   O279    2.080   .     S
Co89   O93     2.166   .     S
N91    H92     0.860   .     S
O95    H96     0.821   .     S
O99    Co269   2.080   .     S
O100   H107    0.885   .     S
O100   H108    0.857   .     S
O101   H102    0.869   .     S
O101   H103    0.868   .     S
O104   H105    0.870   .     S
O104   H106    0.948   .     S
C109   C111    1.483   .     S
C109   O129    1.251   .     S
C109   O130    1.268   .     S
C110   C112    1.469   .     S
C110   O131    1.316   .     S
C110   O133    1.211   .     S
C111   C112    1.374   .     S
C111   N126    1.371   .     S
C112   N127    1.364   .     S
C113   C114    1.478   .     S
C113   N127    1.353   .     S
C113   N126    1.325   .     S
C114   C115    1.390   .     S
C114   C123    1.405   .     S
C115   H116    0.930   .     S
C115   C117    1.375   .     S
C117   H118    0.930   .     S
C117   C119    1.365   .     S
C119   H120    0.929   .     S
C119   C121    1.379   .     S
C121   H122    0.931   .     S
C121   C123    1.390   .     S
C123   C124    1.502   .     S
C124   O134    1.247   .     S
C124   O135    1.271   .     S
Co125  N126    2.121   .     S
Co125  O136    2.096   .     S
Co125  O137    2.139   .     S
Co125  O140    2.101   .     S
Co125  O243    2.080   .     S
Co125  O129    2.166   .     S
N127   H128    0.860   .     S
O131   H132    0.821   .     S
O135   Co233   2.080   .     S
O136   H143    0.885   .     S
O136   H144    0.857   .     S
O137   H138    0.869   .     S
O137   H139    0.868   .     S
O140   H141    0.870   .     S
O140   H142    0.948   .     S
C145   C147    1.483   .     S
C145   O165    1.251   .     S
C145   O166    1.268   .     S
C146   C148    1.469   .     S
C146   O167    1.316   .     S
C146   O169    1.211   .     S
C147   C148    1.374   .     S
C147   N162    1.371   .     S
C148   N163    1.364   .     S
C149   C150    1.478   .     S
C149   N163    1.353   .     S
C149   N162    1.325   .     S
C150   C151    1.390   .     S
C150   C159    1.405   .     S
C151   H152    0.930   .     S
C151   C153    1.375   .     S
C153   H154    0.930   .     S
C153   C155    1.365   .     S
C155   H156    0.929   .     S
C155   C157    1.379   .     S
C157   H158    0.931   .     S
C157   C159    1.390   .     S
C159   C160    1.502   .     S
C160   O170    1.247   .     S
C160   O171    1.271   .     S
Co161  N162    2.121   .     S
Co161  O172    2.096   .     S
Co161  O173    2.139   .     S
Co161  O176    2.101   .     S
Co161  O165    2.166   .     S
N163   H164    0.860   .     S
O167   H168    0.821   .     S
O172   H179    0.885   .     S
O172   H180    0.857   .     S
O173   H174    0.869   .     S
O173   H175    0.868   .     S
O176   H177    0.870   .     S
O176   H178    0.948   .     S
C181   C183    1.483   .     S
C181   O201    1.251   .     S
C181   O202    1.268   .     S
C182   C184    1.469   .     S
C182   O203    1.316   .     S
C182   O205    1.211   .     S
C183   C184    1.374   .     S
C183   N198    1.371   .     S
C184   N199    1.364   .     S
C185   C186    1.478   .     S
C185   N199    1.353   .     S
C185   N198    1.325   .     S
C186   C187    1.390   .     S
C186   C195    1.405   .     S
C187   H188    0.930   .     S
C187   C189    1.375   .     S
C189   H190    0.930   .     S
C189   C191    1.365   .     S
C191   H192    0.929   .     S
C191   C193    1.379   .     S
C193   H194    0.931   .     S
C193   C195    1.390   .     S
C195   C196    1.502   .     S
C196   O206    1.247   .     S
C196   O207    1.271   .     S
Co197  N198    2.121   .     S
Co197  O208    2.096   .     S
Co197  O209    2.139   .     S
Co197  O212    2.101   .     S
Co197  O201    2.166   .     S
N199   H200    0.860   .     S
O203   H204    0.821   .     S
O208   H215    0.885   .     S
O208   H216    0.857   .     S
O209   H210    0.869   .     S
O209   H211    0.868   .     S
O212   H213    0.870   .     S
O212   H214    0.948   .     S
C217   C219    1.483   .     S
C217   O237    1.251   .     S
C217   O238    1.268   .     S
C218   C220    1.469   .     S
C218   O239    1.316   .     S
C218   O241    1.211   .     S
C219   C220    1.374   .     S
C219   N234    1.371   .     S
C220   N235    1.364   .     S
C221   C222    1.478   .     S
C221   N235    1.353   .     S
C221   N234    1.325   .     S
C222   C223    1.390   .     S
C222   C231    1.405   .     S
C223   H224    0.930   .     S
C223   C225    1.375   .     S
C225   H226    0.930   .     S
C225   C227    1.365   .     S
C227   H228    0.929   .     S
C227   C229    1.379   .     S
C229   H230    0.931   .     S
C229   C231    1.390   .     S
C231   C232    1.502   .     S
C232   O242    1.247   .     S
C232   O243    1.271   .     S
Co233  N234    2.121   .     S
Co233  O244    2.096   .     S
Co233  O245    2.139   .     S
Co233  O248    2.101   .     S
Co233  O237    2.166   .     S
N235   H236    0.860   .     S
O239   H240    0.821   .     S
O244   H251    0.885   .     S
O244   H252    0.857   .     S
O245   H246    0.869   .     S
O245   H247    0.868   .     S
O248   H249    0.870   .     S
O248   H250    0.948   .     S
C253   C255    1.483   .     S
C253   O273    1.251   .     S
C253   O274    1.268   .     S
C254   C256    1.469   .     S
C254   O275    1.316   .     S
C254   O277    1.211   .     S
C255   C256    1.374   .     S
C255   N270    1.371   .     S
C256   N271    1.364   .     S
C257   C258    1.478   .     S
C257   N271    1.353   .     S
C257   N270    1.325   .     S
C258   C259    1.390   .     S
C258   C267    1.405   .     S
C259   H260    0.930   .     S
C259   C261    1.375   .     S
C261   H262    0.930   .     S
C261   C263    1.365   .     S
C263   H264    0.929   .     S
C263   C265    1.379   .     S
C265   H266    0.931   .     S
C265   C267    1.390   .     S
C267   C268    1.502   .     S
C268   O278    1.247   .     S
C268   O279    1.271   .     S
Co269  N270    2.121   .     S
Co269  O280    2.096   .     S
Co269  O281    2.139   .     S
Co269  O284    2.101   .     S
Co269  O273    2.166   .     S
N271   H272    0.860   .     S
O275   H276    0.821   .     S
O280   H287    0.885   .     S
O280   H288    0.857   .     S
O281   H282    0.869   .     S
O281   H283    0.868   .     S
O284   H285    0.870   .     S
O284   H286    0.948   .     S
