data_YAHWAJ_FSR
_audit_creation_date              2024-06-11
_audit_creation_method            'Materials Studio'
_symmetry_space_group_name_H-M    'P1'
_symmetry_Int_Tables_number       1
_symmetry_cell_setting            triclinic
loop_
_symmetry_equiv_pos_as_xyz
  x,y,z
_cell_length_a                    16.2954
_cell_length_b                    21.5050
_cell_length_c                    26.9810
_cell_angle_alpha                 90.0000
_cell_angle_beta                  90.0000
_cell_angle_gamma                 90.0000
loop_
_atom_site_label
_atom_site_type_symbol
_atom_site_fract_x
_atom_site_fract_y
_atom_site_fract_z
_atom_site_U_iso_or_equiv
_atom_site_adp_type
_atom_site_occupancy
Co1    Co    0.30442   0.02647   0.26925   0.01933  Uani   1.00
Co2    Co    0.53440   0.78683   0.45597   0.02367  Uani   1.00
O3     O     0.21572   0.96681   0.31053   0.02497  Uani   1.00
O4     O     0.23869   0.06524   0.32703   0.02817  Uani   1.00
O5     O     0.92137   0.02246   0.45865   0.03537  Uani   1.00
O6     O     0.63919   0.82530   0.41204   0.03200  Uani   1.00
O7     O     0.60040   0.86071   0.48471   0.03173  Uani   1.00
O8     O     0.94470   0.83566   0.08983   0.02590  Uani   1.00
O9     O     0.95967   0.73457   0.09317   0.02900  Uani   1.00
O10    O     0.62865   0.74810   0.21310   0.03190  Uani   1.00
O11    O     0.36755   0.96601   0.21554   0.02980  Uani   1.00
O12    O     0.39459   0.96268   0.29476   0.02810  Uani   1.00
N13    N     0.39594   0.09313   0.25600   0.02830  Uani   1.00
N14    N     0.50910   0.14737   0.26742   0.02697  Uani   1.00
N15    N     0.56475   0.18826   0.33961   0.02320  Uani   1.00
N16    N     0.60967   0.22957   0.41368   0.02523  Uani   1.00
N17    N     0.54958   0.22744   0.48658   0.02503  Uani   1.00
N18    N     0.38528   0.21951   0.01699   0.02940  Uani   1.00
N19    N     0.28409   0.15217   0.01058   0.02530  Uani   1.00
N20    N     0.21911   0.09827   0.07349   0.02317  Uani   1.00
N21    N     0.16266   0.04665   0.14021   0.02397  Uani   1.00
N22    N     0.21470   0.03598   0.21504   0.02523  Uani   1.00
C23    C     0.19833   0.01526   0.33394   0.02147  Uani   1.00
C24    C     0.12720   0.01565   0.36872   0.02130  Uani   1.00
C25    C     0.09265   0.07170   0.38322   0.02580  Uani   1.00
H26    H     0.11710   0.10960   0.37280   0.03100  Uiso   1.00
C27    C     0.02311   0.07329   0.41265   0.02770  Uani   1.00
H28    H     0.99930   0.11180   0.42210   0.03300  Uiso   1.00
C29    C     0.98917   0.01769   0.42794   0.02600  Uani   1.00
C30    C     0.02383   0.96129   0.41548   0.02827  Uani   1.00
H31    H     0.00090   0.92360   0.42750   0.03400  Uiso   1.00
C32    C     0.09248   0.96039   0.38515   0.02557  Uani   1.00
H33    H     0.11590   0.92180   0.37560   0.03100  Uiso   1.00
C34    C     0.85773   0.98039   0.45365   0.02617  Uani   1.00
C35    C     0.81703   0.96543   0.49693   0.02803  Uani   1.00
H36    H     0.83560   0.98130   0.52780   0.03400  Uiso   1.00
C37    C     0.74909   0.92718   0.49483   0.02773  Uani   1.00
H38    H     0.72040   0.91710   0.52440   0.03300  Uiso   1.00
C39    C     0.72245   0.90332   0.44963   0.02343  Uani   1.00
C40    C     0.76445   0.91881   0.40652   0.02533  Uani   1.00
H41    H     0.74650   0.90250   0.37560   0.03000  Uiso   1.00
C42    C     0.83203   0.95767   0.40811   0.02540  Uani   1.00
H43    H     0.86030   0.96860   0.37860   0.03000  Uiso   1.00
C44    C     0.65009   0.86100   0.44799   0.02693  Uani   1.00
C45    C     0.44518   0.11767   0.28920   0.02157  Uani   1.00
H46    H     0.43710   0.11500   0.32400   0.02600  Uiso   1.00
C47    C     0.42869   0.10894   0.21067   0.05317  Uani   1.00
H48    H     0.40610   0.09740   0.17950   0.06400  Uiso   1.00
C49    C     0.49727   0.14302   0.21680   0.04950  Uani   1.00
H50    H     0.53070   0.16050   0.19150   0.06000  Uiso   1.00
C51    C     0.57613   0.17598   0.29176   0.02547  Uani   1.00
C52    C     0.64799   0.18920   0.26631   0.03880  Uani   1.00
H53    H     0.65410   0.17890   0.23230   0.04700  Uiso   1.00
C54    C     0.71002   0.21774   0.29236   0.04507  Uani   1.00
H55    H     0.76030   0.22740   0.27620   0.05400  Uiso   1.00
C56    C     0.69974   0.23239   0.34172   0.03783  Uani   1.00
H57    H     0.74150   0.25270   0.36020   0.04500  Uiso   1.00
C58    C     0.62571   0.21614   0.36304   0.02457  Uani   1.00
C59    C     0.54935   0.20414   0.44174   0.02330  Uani   1.00
H60    H     0.51190   0.17350   0.43040   0.02800  Uiso   1.00
C61    C     0.65090   0.27154   0.44335   0.03897  Uani   1.00
H62    H     0.69670   0.29640   0.43430   0.04700  Uiso   1.00
C63    C     0.61303   0.27013   0.48758   0.03537  Uani   1.00
H64    H     0.62770   0.29480   0.51540   0.04200  Uiso   1.00
C65    C     0.33627   0.18231   0.04144   0.02623  Uani   1.00
H66    H     0.33720   0.17710   0.07640   0.03100  Uiso   1.00
C67    C     0.36343   0.21336   0.96787   0.05090  Uani   1.00
H68    H     0.38830   0.23500   0.94110   0.06100  Uiso   1.00
C69    C     0.30169   0.17224   0.96351   0.04647  Uani   1.00
H70    H     0.27540   0.15960   0.93370   0.05600  Uiso   1.00
C71    C     0.22010   0.11149   0.02543   0.02270  Uani   1.00
C72    C     0.16384   0.08948   0.99160   0.02880  Uani   1.00
H73    H     0.16720   0.10030   0.95750   0.03500  Uiso   1.00
C74    C     0.10259   0.05121   0.00917   0.03303  Uani   1.00
H75    H     0.06230   0.03530   0.98710   0.04000  Uiso   1.00
C76    C     0.09979   0.03590   0.05888   0.02877  Uani   1.00
H77    H     0.05840   0.00940   0.07180   0.03500  Uiso   1.00
C78    C     0.15972   0.06088   0.08883   0.02313  Uani   1.00
C79    C     0.22689   0.05796   0.17050   0.02620  Uani   1.00
H80    H     0.27520   0.07940   0.16060   0.03100  Uiso   1.00
C81    C     0.10556   0.01485   0.16806   0.03567  Uani   1.00
H82    H     0.05360   0.00010   0.15720   0.04300  Uiso   1.00
C83    C     0.13810   0.00890   0.21378   0.03360  Uani   1.00
H84    H     0.11210   0.98900   0.24100   0.04000  Uiso   1.00
C85    C     0.91951   0.78306   0.10414   0.02323  Uani   1.00
C86    C     0.84099   0.77693   0.13192   0.02127  Uani   1.00
C87    C     0.80764   0.82602   0.15863   0.02223  Uani   1.00
H88    H     0.83480   0.86510   0.15890   0.02700  Uiso   1.00
C89    C     0.73524   0.81852   0.18482   0.02473  Uani   1.00
H90    H     0.71270   0.85200   0.20330   0.03000  Uiso   1.00
C91    C     0.69613   0.76124   0.18353   0.02363  Uani   1.00
C92    C     0.72589   0.71276   0.15526   0.02683  Uani   1.00
H93    H     0.69710   0.67440   0.15360   0.03200  Uiso   1.00
C94    C     0.79813   0.72105   0.12945   0.02580  Uani   1.00
H95    H     0.81900   0.68810   0.10970   0.03100  Uiso   1.00
C96    C     0.57464   0.79672   0.22261   0.02573  Uani   1.00
C97    C     0.56403   0.81632   0.27084   0.03067  Uani   1.00
H98    H     0.59440   0.79780   0.29700   0.03700  Uiso   1.00
C99    C     0.50838   0.86335   0.28036   0.02917  Uani   1.00
H100   H     0.50040   0.87730   0.31340   0.03500  Uiso   1.00
C101   C     0.46401   0.89035   0.24194   0.02350  Uani   1.00
C102   C     0.47459   0.86900   0.19406   0.02777  Uani   1.00
H103   H     0.44350   0.88670   0.16780   0.03300  Uiso   1.00
C104   C     0.53021   0.82198   0.18400   0.02980  Uani   1.00
H105   H     0.53770   0.80740   0.15110   0.03600  Uiso   1.00
C106   C     0.40586   0.94248   0.25104   0.02373  Uani   1.00
Co107  Co    0.19558   0.97353   0.76925   0.01933  Uani   1.00
Co108  Co    0.96560   0.21317   0.95597   0.02367  Uani   1.00
O109   O     0.28428   0.03319   0.81053   0.02497  Uani   1.00
O110   O     0.26131   0.93476   0.82703   0.02817  Uani   1.00
O111   O     0.57863   0.97754   0.95865   0.03537  Uani   1.00
O112   O     0.86081   0.17470   0.91204   0.03200  Uani   1.00
O113   O     0.89960   0.13929   0.98471   0.03173  Uani   1.00
O114   O     0.55530   0.16434   0.58983   0.02590  Uani   1.00
O115   O     0.54033   0.26543   0.59317   0.02900  Uani   1.00
O116   O     0.87135   0.25190   0.71310   0.03190  Uani   1.00
O117   O     0.13245   0.03399   0.71554   0.02980  Uani   1.00
O118   O     0.10541   0.03732   0.79476   0.02810  Uani   1.00
N119   N     0.10406   0.90687   0.75600   0.02830  Uani   1.00
N120   N     0.99090   0.85263   0.76742   0.02697  Uani   1.00
N121   N     0.93525   0.81174   0.83961   0.02320  Uani   1.00
N122   N     0.89033   0.77043   0.91368   0.02523  Uani   1.00
N123   N     0.95042   0.77256   0.98658   0.02503  Uani   1.00
N124   N     0.11472   0.78049   0.51699   0.02940  Uani   1.00
N125   N     0.21591   0.84783   0.51058   0.02530  Uani   1.00
N126   N     0.28089   0.90173   0.57349   0.02317  Uani   1.00
N127   N     0.33734   0.95335   0.64021   0.02397  Uani   1.00
N128   N     0.28530   0.96402   0.71504   0.02523  Uani   1.00
C129   C     0.30167   0.98474   0.83394   0.02147  Uani   1.00
C130   C     0.37280   0.98435   0.86872   0.02130  Uani   1.00
C131   C     0.40735   0.92830   0.88322   0.02580  Uani   1.00
H132   H     0.38290   0.89040   0.87280   0.03100  Uiso   1.00
C133   C     0.47689   0.92671   0.91265   0.02770  Uani   1.00
H134   H     0.50070   0.88820   0.92210   0.03300  Uiso   1.00
C135   C     0.51083   0.98231   0.92794   0.02600  Uani   1.00
C136   C     0.47617   0.03871   0.91548   0.02827  Uani   1.00
H137   H     0.49910   0.07640   0.92750   0.03400  Uiso   1.00
C138   C     0.40752   0.03961   0.88515   0.02557  Uani   1.00
H139   H     0.38410   0.07820   0.87560   0.03100  Uiso   1.00
C140   C     0.64227   0.01961   0.95365   0.02617  Uani   1.00
C141   C     0.68297   0.03457   0.99693   0.02803  Uani   1.00
H142   H     0.66440   0.01870   0.02780   0.03400  Uiso   1.00
C143   C     0.75091   0.07282   0.99483   0.02773  Uani   1.00
H144   H     0.77960   0.08290   0.02440   0.03300  Uiso   1.00
C145   C     0.77755   0.09668   0.94963   0.02343  Uani   1.00
C146   C     0.73555   0.08119   0.90652   0.02533  Uani   1.00
H147   H     0.75350   0.09750   0.87560   0.03000  Uiso   1.00
C148   C     0.66797   0.04233   0.90811   0.02540  Uani   1.00
H149   H     0.63970   0.03140   0.87860   0.03000  Uiso   1.00
C150   C     0.84991   0.13900   0.94799   0.02693  Uani   1.00
C151   C     0.05482   0.88233   0.78920   0.02157  Uani   1.00
H152   H     0.06290   0.88500   0.82400   0.02600  Uiso   1.00
C153   C     0.07131   0.89106   0.71067   0.05317  Uani   1.00
H154   H     0.09390   0.90260   0.67950   0.06400  Uiso   1.00
C155   C     0.00273   0.85698   0.71680   0.04950  Uani   1.00
H156   H     0.96930   0.83950   0.69150   0.06000  Uiso   1.00
C157   C     0.92387   0.82402   0.79176   0.02547  Uani   1.00
C158   C     0.85201   0.81080   0.76631   0.03880  Uani   1.00
H159   H     0.84590   0.82110   0.73230   0.04700  Uiso   1.00
C160   C     0.78998   0.78226   0.79236   0.04507  Uani   1.00
H161   H     0.73970   0.77260   0.77620   0.05400  Uiso   1.00
C162   C     0.80026   0.76761   0.84172   0.03783  Uani   1.00
H163   H     0.75850   0.74730   0.86020   0.04500  Uiso   1.00
C164   C     0.87429   0.78386   0.86304   0.02457  Uani   1.00
C165   C     0.95065   0.79586   0.94174   0.02330  Uani   1.00
H166   H     0.98810   0.82650   0.93040   0.02800  Uiso   1.00
C167   C     0.84910   0.72846   0.94335   0.03897  Uani   1.00
H168   H     0.80330   0.70360   0.93430   0.04700  Uiso   1.00
C169   C     0.88697   0.72987   0.98758   0.03537  Uani   1.00
H170   H     0.87230   0.70520   0.01540   0.04200  Uiso   1.00
C171   C     0.16373   0.81769   0.54144   0.02623  Uani   1.00
H172   H     0.16280   0.82290   0.57640   0.03100  Uiso   1.00
C173   C     0.13657   0.78664   0.46787   0.05090  Uani   1.00
H174   H     0.11170   0.76500   0.44110   0.06100  Uiso   1.00
C175   C     0.19831   0.82776   0.46351   0.04647  Uani   1.00
H176   H     0.22460   0.84040   0.43370   0.05600  Uiso   1.00
C177   C     0.27990   0.88851   0.52543   0.02270  Uani   1.00
C178   C     0.33616   0.91052   0.49160   0.02880  Uani   1.00
H179   H     0.33280   0.89970   0.45750   0.03500  Uiso   1.00
C180   C     0.39741   0.94879   0.50917   0.03303  Uani   1.00
H181   H     0.43770   0.96470   0.48710   0.04000  Uiso   1.00
C182   C     0.40021   0.96410   0.55888   0.02877  Uani   1.00
H183   H     0.44160   0.99060   0.57180   0.03500  Uiso   1.00
C184   C     0.34028   0.93912   0.58883   0.02313  Uani   1.00
C185   C     0.27311   0.94204   0.67050   0.02620  Uani   1.00
H186   H     0.22480   0.92060   0.66060   0.03100  Uiso   1.00
C187   C     0.39444   0.98515   0.66806   0.03567  Uani   1.00
H188   H     0.44640   0.99990   0.65720   0.04300  Uiso   1.00
C189   C     0.36190   0.99110   0.71378   0.03360  Uani   1.00
H190   H     0.38790   0.01100   0.74100   0.04000  Uiso   1.00
C191   C     0.58049   0.21694   0.60414   0.02323  Uani   1.00
C192   C     0.65901   0.22307   0.63192   0.02127  Uani   1.00
C193   C     0.69236   0.17398   0.65863   0.02223  Uani   1.00
H194   H     0.66520   0.13490   0.65890   0.02700  Uiso   1.00
C195   C     0.76476   0.18148   0.68482   0.02473  Uani   1.00
H196   H     0.78730   0.14800   0.70330   0.03000  Uiso   1.00
C197   C     0.80387   0.23876   0.68353   0.02363  Uani   1.00
C198   C     0.77411   0.28724   0.65526   0.02683  Uani   1.00
H199   H     0.80290   0.32560   0.65360   0.03200  Uiso   1.00
C200   C     0.70187   0.27895   0.62945   0.02580  Uani   1.00
H201   H     0.68100   0.31190   0.60970   0.03100  Uiso   1.00
C202   C     0.92536   0.20328   0.72261   0.02573  Uani   1.00
C203   C     0.93597   0.18368   0.77084   0.03067  Uani   1.00
H204   H     0.90560   0.20220   0.79700   0.03700  Uiso   1.00
C205   C     0.99162   0.13665   0.78036   0.02917  Uani   1.00
H206   H     0.99960   0.12270   0.81340   0.03500  Uiso   1.00
C207   C     0.03599   0.10965   0.74194   0.02350  Uani   1.00
C208   C     0.02541   0.13100   0.69406   0.02777  Uani   1.00
H209   H     0.05650   0.11330   0.66780   0.03300  Uiso   1.00
C210   C     0.96979   0.17802   0.68400   0.02980  Uani   1.00
H211   H     0.96230   0.19260   0.65110   0.03600  Uiso   1.00
C212   C     0.09414   0.05752   0.75104   0.02373  Uani   1.00
Co213  Co    0.69558   0.52647   0.23075   0.01933  Uani   1.00
Co214  Co    0.46560   0.28683   0.04403   0.02367  Uani   1.00
O215   O     0.78428   0.46681   0.18947   0.02497  Uani   1.00
O216   O     0.76131   0.56524   0.17297   0.02817  Uani   1.00
O217   O     0.07863   0.52246   0.04135   0.03537  Uani   1.00
O218   O     0.36081   0.32530   0.08796   0.03200  Uani   1.00
O219   O     0.39960   0.36071   0.01529   0.03173  Uani   1.00
O220   O     0.05530   0.33566   0.41017   0.02590  Uani   1.00
O221   O     0.04033   0.23457   0.40683   0.02900  Uani   1.00
O222   O     0.37135   0.24810   0.28690   0.03190  Uani   1.00
O223   O     0.63245   0.46601   0.28446   0.02980  Uani   1.00
O224   O     0.60541   0.46268   0.20524   0.02810  Uani   1.00
N225   N     0.60406   0.59313   0.24400   0.02830  Uani   1.00
N226   N     0.49090   0.64737   0.23258   0.02697  Uani   1.00
N227   N     0.43525   0.68826   0.16039   0.02320  Uani   1.00
N228   N     0.39033   0.72957   0.08632   0.02523  Uani   1.00
N229   N     0.45042   0.72744   0.01342   0.02503  Uani   1.00
N230   N     0.61472   0.71951   0.48301   0.02940  Uani   1.00
N231   N     0.71591   0.65217   0.48942   0.02530  Uani   1.00
N232   N     0.78089   0.59827   0.42651   0.02317  Uani   1.00
N233   N     0.83734   0.54665   0.35979   0.02397  Uani   1.00
N234   N     0.78530   0.53598   0.28496   0.02523  Uani   1.00
C235   C     0.80167   0.51526   0.16606   0.02147  Uani   1.00
C236   C     0.87280   0.51565   0.13128   0.02130  Uani   1.00
C237   C     0.90735   0.57170   0.11678   0.02580  Uani   1.00
H238   H     0.88290   0.60960   0.12720   0.03100  Uiso   1.00
C239   C     0.97689   0.57329   0.08735   0.02770  Uani   1.00
H240   H     0.00070   0.61180   0.07790   0.03300  Uiso   1.00
C241   C     0.01083   0.51769   0.07206   0.02600  Uani   1.00
C242   C     0.97617   0.46129   0.08452   0.02827  Uani   1.00
H243   H     0.99910   0.42360   0.07250   0.03400  Uiso   1.00
C244   C     0.90752   0.46039   0.11485   0.02557  Uani   1.00
H245   H     0.88410   0.42180   0.12440   0.03100  Uiso   1.00
C246   C     0.14227   0.48039   0.04635   0.02617  Uani   1.00
C247   C     0.18297   0.46543   0.00307   0.02803  Uani   1.00
H248   H     0.16440   0.48130   0.97220   0.03400  Uiso   1.00
C249   C     0.25091   0.42718   0.00517   0.02773  Uani   1.00
H250   H     0.27960   0.41710   0.97560   0.03300  Uiso   1.00
C251   C     0.27755   0.40332   0.05037   0.02343  Uani   1.00
C252   C     0.23555   0.41881   0.09348   0.02533  Uani   1.00
H253   H     0.25350   0.40250   0.12440   0.03000  Uiso   1.00
C254   C     0.16797   0.45767   0.09189   0.02540  Uani   1.00
H255   H     0.13970   0.46860   0.12140   0.03000  Uiso   1.00
C256   C     0.34991   0.36100   0.05201   0.02693  Uani   1.00
C257   C     0.55482   0.61767   0.21080   0.02157  Uani   1.00
H258   H     0.56290   0.61500   0.17600   0.02600  Uiso   1.00
C259   C     0.57131   0.60894   0.28933   0.05317  Uani   1.00
H260   H     0.59390   0.59740   0.32050   0.06400  Uiso   1.00
C261   C     0.50273   0.64302   0.28320   0.04950  Uani   1.00
H262   H     0.46930   0.66050   0.30850   0.06000  Uiso   1.00
C263   C     0.42387   0.67598   0.20824   0.02547  Uani   1.00
C264   C     0.35201   0.68920   0.23369   0.03880  Uani   1.00
H265   H     0.34590   0.67890   0.26770   0.04700  Uiso   1.00
C266   C     0.28998   0.71774   0.20764   0.04507  Uani   1.00
H267   H     0.23970   0.72740   0.22380   0.05400  Uiso   1.00
C268   C     0.30026   0.73239   0.15828   0.03783  Uani   1.00
H269   H     0.25850   0.75270   0.13980   0.04500  Uiso   1.00
C270   C     0.37429   0.71614   0.13696   0.02457  Uani   1.00
C271   C     0.45065   0.70414   0.05826   0.02330  Uani   1.00
H272   H     0.48810   0.67350   0.06960   0.02800  Uiso   1.00
C273   C     0.34910   0.77154   0.05665   0.03897  Uani   1.00
H274   H     0.30330   0.79640   0.06570   0.04700  Uiso   1.00
C275   C     0.38697   0.77013   0.01242   0.03537  Uani   1.00
H276   H     0.37230   0.79480   0.98460   0.04200  Uiso   1.00
C277   C     0.66373   0.68231   0.45856   0.02623  Uani   1.00
H278   H     0.66280   0.67710   0.42360   0.03100  Uiso   1.00
C279   C     0.63657   0.71336   0.53213   0.05090  Uani   1.00
H280   H     0.61170   0.73500   0.55890   0.06100  Uiso   1.00
C281   C     0.69831   0.67224   0.53649   0.04647  Uani   1.00
H282   H     0.72460   0.65960   0.56630   0.05600  Uiso   1.00
C283   C     0.77990   0.61149   0.47457   0.02270  Uani   1.00
C284   C     0.83616   0.58948   0.50840   0.02880  Uani   1.00
H285   H     0.83280   0.60030   0.54250   0.03500  Uiso   1.00
C286   C     0.89741   0.55121   0.49083   0.03303  Uani   1.00
H287   H     0.93770   0.53530   0.51290   0.04000  Uiso   1.00
C288   C     0.90021   0.53590   0.44112   0.02877  Uani   1.00
H289   H     0.94160   0.50940   0.42820   0.03500  Uiso   1.00
C290   C     0.84028   0.56088   0.41117   0.02313  Uani   1.00
C291   C     0.77311   0.55796   0.32950   0.02620  Uani   1.00
H292   H     0.72480   0.57940   0.33940   0.03100  Uiso   1.00
C293   C     0.89444   0.51485   0.33194   0.03567  Uani   1.00
H294   H     0.94640   0.50010   0.34280   0.04300  Uiso   1.00
C295   C     0.86190   0.50890   0.28622   0.03360  Uani   1.00
H296   H     0.88790   0.48900   0.25900   0.04000  Uiso   1.00
C297   C     0.08049   0.28306   0.39586   0.02323  Uani   1.00
C298   C     0.15901   0.27693   0.36808   0.02127  Uani   1.00
C299   C     0.19236   0.32602   0.34137   0.02223  Uani   1.00
H300   H     0.16520   0.36510   0.34110   0.02700  Uiso   1.00
C301   C     0.26476   0.31852   0.31518   0.02473  Uani   1.00
H302   H     0.28730   0.35200   0.29670   0.03000  Uiso   1.00
C303   C     0.30387   0.26124   0.31647   0.02363  Uani   1.00
C304   C     0.27411   0.21276   0.34474   0.02683  Uani   1.00
H305   H     0.30290   0.17440   0.34640   0.03200  Uiso   1.00
C306   C     0.20187   0.22105   0.37055   0.02580  Uani   1.00
H307   H     0.18100   0.18810   0.39030   0.03100  Uiso   1.00
C308   C     0.42536   0.29672   0.27739   0.02573  Uani   1.00
C309   C     0.43597   0.31632   0.22916   0.03067  Uani   1.00
H310   H     0.40560   0.29780   0.20300   0.03700  Uiso   1.00
C311   C     0.49162   0.36335   0.21964   0.02917  Uani   1.00
H312   H     0.49960   0.37730   0.18660   0.03500  Uiso   1.00
C313   C     0.53599   0.39035   0.25806   0.02350  Uani   1.00
C314   C     0.52541   0.36900   0.30594   0.02777  Uani   1.00
H315   H     0.55650   0.38670   0.33220   0.03300  Uiso   1.00
C316   C     0.46979   0.32198   0.31600   0.02980  Uani   1.00
H317   H     0.46230   0.30740   0.34890   0.03600  Uiso   1.00
C318   C     0.59414   0.44248   0.24896   0.02373  Uani   1.00
Co319  Co    0.80442   0.47353   0.73075   0.01933  Uani   1.00
Co320  Co    0.03440   0.71317   0.54403   0.02367  Uani   1.00
O321   O     0.71572   0.53319   0.68947   0.02497  Uani   1.00
O322   O     0.73869   0.43476   0.67297   0.02817  Uani   1.00
O323   O     0.42137   0.47754   0.54135   0.03537  Uani   1.00
O324   O     0.13919   0.67470   0.58796   0.03200  Uani   1.00
O325   O     0.10040   0.63929   0.51529   0.03173  Uani   1.00
O326   O     0.44470   0.66434   0.91017   0.02590  Uani   1.00
O327   O     0.45967   0.76543   0.90683   0.02900  Uani   1.00
O328   O     0.12865   0.75190   0.78690   0.03190  Uani   1.00
O329   O     0.86755   0.53399   0.78446   0.02980  Uani   1.00
O330   O     0.89459   0.53732   0.70524   0.02810  Uani   1.00
N331   N     0.89594   0.40687   0.74400   0.02830  Uani   1.00
N332   N     0.00910   0.35263   0.73258   0.02697  Uani   1.00
N333   N     0.06475   0.31174   0.66039   0.02320  Uani   1.00
N334   N     0.10967   0.27043   0.58632   0.02523  Uani   1.00
N335   N     0.04958   0.27256   0.51342   0.02503  Uani   1.00
N336   N     0.88528   0.28049   0.98301   0.02940  Uani   1.00
N337   N     0.78409   0.34783   0.98942   0.02530  Uani   1.00
N338   N     0.71911   0.40173   0.92651   0.02317  Uani   1.00
N339   N     0.66266   0.45335   0.85979   0.02397  Uani   1.00
N340   N     0.71470   0.46402   0.78496   0.02523  Uani   1.00
C341   C     0.69833   0.48474   0.66606   0.02147  Uani   1.00
C342   C     0.62720   0.48435   0.63128   0.02130  Uani   1.00
C343   C     0.59265   0.42830   0.61678   0.02580  Uani   1.00
H344   H     0.61710   0.39040   0.62720   0.03100  Uiso   1.00
C345   C     0.52311   0.42671   0.58735   0.02770  Uani   1.00
H346   H     0.49930   0.38820   0.57790   0.03300  Uiso   1.00
C347   C     0.48917   0.48231   0.57206   0.02600  Uani   1.00
C348   C     0.52383   0.53871   0.58452   0.02827  Uani   1.00
H349   H     0.50090   0.57640   0.57250   0.03400  Uiso   1.00
C350   C     0.59248   0.53961   0.61485   0.02557  Uani   1.00
H351   H     0.61590   0.57820   0.62440   0.03100  Uiso   1.00
C352   C     0.35773   0.51961   0.54635   0.02617  Uani   1.00
C353   C     0.31703   0.53457   0.50307   0.02803  Uani   1.00
H354   H     0.33560   0.51870   0.47220   0.03400  Uiso   1.00
C355   C     0.24909   0.57282   0.50517   0.02773  Uani   1.00
H356   H     0.22040   0.58290   0.47560   0.03300  Uiso   1.00
C357   C     0.22245   0.59668   0.55037   0.02343  Uani   1.00
C358   C     0.26445   0.58119   0.59348   0.02533  Uani   1.00
H359   H     0.24650   0.59750   0.62440   0.03000  Uiso   1.00
C360   C     0.33203   0.54233   0.59189   0.02540  Uani   1.00
H361   H     0.36030   0.53140   0.62140   0.03000  Uiso   1.00
C362   C     0.15009   0.63900   0.55201   0.02693  Uani   1.00
C363   C     0.94518   0.38233   0.71080   0.02157  Uani   1.00
H364   H     0.93710   0.38500   0.67600   0.02600  Uiso   1.00
C365   C     0.92869   0.39106   0.78933   0.05317  Uani   1.00
H366   H     0.90610   0.40260   0.82050   0.06400  Uiso   1.00
C367   C     0.99727   0.35698   0.78320   0.04950  Uani   1.00
H368   H     0.03070   0.33950   0.80850   0.06000  Uiso   1.00
C369   C     0.07613   0.32402   0.70824   0.02547  Uani   1.00
C370   C     0.14799   0.31080   0.73369   0.03880  Uani   1.00
H371   H     0.15410   0.32110   0.76770   0.04700  Uiso   1.00
C372   C     0.21002   0.28226   0.70764   0.04507  Uani   1.00
H373   H     0.26030   0.27260   0.72380   0.05400  Uiso   1.00
C374   C     0.19974   0.26761   0.65828   0.03783  Uani   1.00
H375   H     0.24150   0.24730   0.63980   0.04500  Uiso   1.00
C376   C     0.12571   0.28386   0.63696   0.02457  Uani   1.00
C377   C     0.04935   0.29586   0.55826   0.02330  Uani   1.00
H378   H     0.01190   0.32650   0.56960   0.02800  Uiso   1.00
C379   C     0.15090   0.22846   0.55665   0.03897  Uani   1.00
H380   H     0.19670   0.20360   0.56570   0.04700  Uiso   1.00
C381   C     0.11303   0.22987   0.51242   0.03537  Uani   1.00
H382   H     0.12770   0.20520   0.48460   0.04200  Uiso   1.00
C383   C     0.83627   0.31769   0.95856   0.02623  Uani   1.00
H384   H     0.83720   0.32290   0.92360   0.03100  Uiso   1.00
C385   C     0.86343   0.28664   0.03213   0.05090  Uani   1.00
H386   H     0.88830   0.26500   0.05890   0.06100  Uiso   1.00
C387   C     0.80169   0.32776   0.03649   0.04647  Uani   1.00
H388   H     0.77540   0.34040   0.06630   0.05600  Uiso   1.00
C389   C     0.72010   0.38851   0.97457   0.02270  Uani   1.00
C390   C     0.66384   0.41052   0.00840   0.02880  Uani   1.00
H391   H     0.66720   0.39970   0.04250   0.03500  Uiso   1.00
C392   C     0.60259   0.44879   0.99083   0.03303  Uani   1.00
H393   H     0.56230   0.46470   0.01290   0.04000  Uiso   1.00
C394   C     0.59979   0.46410   0.94112   0.02877  Uani   1.00
H395   H     0.55840   0.49060   0.92820   0.03500  Uiso   1.00
C396   C     0.65972   0.43912   0.91117   0.02313  Uani   1.00
C397   C     0.72689   0.44204   0.82950   0.02620  Uani   1.00
H398   H     0.77520   0.42060   0.83940   0.03100  Uiso   1.00
C399   C     0.60556   0.48515   0.83194   0.03567  Uani   1.00
H400   H     0.55360   0.49990   0.84280   0.04300  Uiso   1.00
C401   C     0.63810   0.49110   0.78622   0.03360  Uani   1.00
H402   H     0.61210   0.51100   0.75900   0.04000  Uiso   1.00
C403   C     0.41951   0.71694   0.89586   0.02323  Uani   1.00
C404   C     0.34099   0.72307   0.86808   0.02127  Uani   1.00
C405   C     0.30764   0.67398   0.84137   0.02223  Uani   1.00
H406   H     0.33480   0.63490   0.84110   0.02700  Uiso   1.00
C407   C     0.23524   0.68148   0.81518   0.02473  Uani   1.00
H408   H     0.21270   0.64800   0.79670   0.03000  Uiso   1.00
C409   C     0.19613   0.73876   0.81647   0.02363  Uani   1.00
C410   C     0.22589   0.78724   0.84474   0.02683  Uani   1.00
H411   H     0.19710   0.82560   0.84640   0.03200  Uiso   1.00
C412   C     0.29813   0.77895   0.87055   0.02580  Uani   1.00
H413   H     0.31900   0.81190   0.89030   0.03100  Uiso   1.00
C414   C     0.07464   0.70328   0.77739   0.02573  Uani   1.00
C415   C     0.06403   0.68368   0.72916   0.03067  Uani   1.00
H416   H     0.09440   0.70220   0.70300   0.03700  Uiso   1.00
C417   C     0.00838   0.63665   0.71964   0.02917  Uani   1.00
H418   H     0.00040   0.62270   0.68660   0.03500  Uiso   1.00
C419   C     0.96401   0.60965   0.75806   0.02350  Uani   1.00
C420   C     0.97459   0.63100   0.80594   0.02777  Uani   1.00
H421   H     0.94350   0.61330   0.83220   0.03300  Uiso   1.00
C422   C     0.03021   0.67802   0.81600   0.02980  Uani   1.00
H423   H     0.03770   0.69260   0.84890   0.03600  Uiso   1.00
C424   C     0.90586   0.55752   0.74896   0.02373  Uani   1.00
Co425  Co    0.69558   0.97353   0.73075   0.01933  Uani   1.00
Co426  Co    0.46560   0.21317   0.54403   0.02367  Uani   1.00
O427   O     0.78428   0.03319   0.68947   0.02497  Uani   1.00
O428   O     0.76131   0.93476   0.67297   0.02817  Uani   1.00
O429   O     0.07863   0.97754   0.54135   0.03537  Uani   1.00
O430   O     0.36081   0.17470   0.58796   0.03200  Uani   1.00
O431   O     0.39960   0.13929   0.51529   0.03173  Uani   1.00
O432   O     0.05530   0.16434   0.91017   0.02590  Uani   1.00
O433   O     0.04033   0.26543   0.90683   0.02900  Uani   1.00
O434   O     0.37135   0.25190   0.78690   0.03190  Uani   1.00
O435   O     0.63245   0.03399   0.78446   0.02980  Uani   1.00
O436   O     0.60541   0.03732   0.70524   0.02810  Uani   1.00
N437   N     0.60406   0.90687   0.74400   0.02830  Uani   1.00
N438   N     0.49090   0.85263   0.73258   0.02697  Uani   1.00
N439   N     0.43525   0.81174   0.66039   0.02320  Uani   1.00
N440   N     0.39033   0.77043   0.58632   0.02523  Uani   1.00
N441   N     0.45042   0.77256   0.51342   0.02503  Uani   1.00
N442   N     0.61472   0.78049   0.98301   0.02940  Uani   1.00
N443   N     0.71591   0.84783   0.98942   0.02530  Uani   1.00
N444   N     0.78089   0.90173   0.92651   0.02317  Uani   1.00
N445   N     0.83734   0.95335   0.85979   0.02397  Uani   1.00
N446   N     0.78530   0.96402   0.78496   0.02523  Uani   1.00
C447   C     0.80167   0.98474   0.66606   0.02147  Uani   1.00
C448   C     0.87280   0.98435   0.63128   0.02130  Uani   1.00
C449   C     0.90735   0.92830   0.61678   0.02580  Uani   1.00
H450   H     0.88290   0.89040   0.62720   0.03100  Uiso   1.00
C451   C     0.97689   0.92671   0.58735   0.02770  Uani   1.00
H452   H     0.00070   0.88820   0.57790   0.03300  Uiso   1.00
C453   C     0.01083   0.98231   0.57206   0.02600  Uani   1.00
C454   C     0.97617   0.03871   0.58452   0.02827  Uani   1.00
H455   H     0.99910   0.07640   0.57250   0.03400  Uiso   1.00
C456   C     0.90752   0.03961   0.61485   0.02557  Uani   1.00
H457   H     0.88410   0.07820   0.62440   0.03100  Uiso   1.00
C458   C     0.14227   0.01961   0.54635   0.02617  Uani   1.00
C459   C     0.18297   0.03457   0.50307   0.02803  Uani   1.00
H460   H     0.16440   0.01870   0.47220   0.03400  Uiso   1.00
C461   C     0.25091   0.07282   0.50517   0.02773  Uani   1.00
H462   H     0.27960   0.08290   0.47560   0.03300  Uiso   1.00
C463   C     0.27755   0.09668   0.55037   0.02343  Uani   1.00
C464   C     0.23555   0.08119   0.59348   0.02533  Uani   1.00
H465   H     0.25350   0.09750   0.62440   0.03000  Uiso   1.00
C466   C     0.16797   0.04233   0.59189   0.02540  Uani   1.00
H467   H     0.13970   0.03140   0.62140   0.03000  Uiso   1.00
C468   C     0.34991   0.13900   0.55201   0.02693  Uani   1.00
C469   C     0.55482   0.88233   0.71080   0.02157  Uani   1.00
H470   H     0.56290   0.88500   0.67600   0.02600  Uiso   1.00
C471   C     0.57131   0.89106   0.78933   0.05317  Uani   1.00
H472   H     0.59390   0.90260   0.82050   0.06400  Uiso   1.00
C473   C     0.50273   0.85698   0.78320   0.04950  Uani   1.00
H474   H     0.46930   0.83950   0.80850   0.06000  Uiso   1.00
C475   C     0.42387   0.82402   0.70824   0.02547  Uani   1.00
C476   C     0.35201   0.81080   0.73369   0.03880  Uani   1.00
H477   H     0.34590   0.82110   0.76770   0.04700  Uiso   1.00
C478   C     0.28998   0.78226   0.70764   0.04507  Uani   1.00
H479   H     0.23970   0.77260   0.72380   0.05400  Uiso   1.00
C480   C     0.30026   0.76761   0.65828   0.03783  Uani   1.00
H481   H     0.25850   0.74730   0.63980   0.04500  Uiso   1.00
C482   C     0.37429   0.78386   0.63696   0.02457  Uani   1.00
C483   C     0.45065   0.79586   0.55826   0.02330  Uani   1.00
H484   H     0.48810   0.82650   0.56960   0.02800  Uiso   1.00
C485   C     0.34910   0.72846   0.55665   0.03897  Uani   1.00
H486   H     0.30330   0.70360   0.56570   0.04700  Uiso   1.00
C487   C     0.38697   0.72987   0.51242   0.03537  Uani   1.00
H488   H     0.37230   0.70520   0.48460   0.04200  Uiso   1.00
C489   C     0.66373   0.81769   0.95856   0.02623  Uani   1.00
H490   H     0.66280   0.82290   0.92360   0.03100  Uiso   1.00
C491   C     0.63657   0.78664   0.03213   0.05090  Uani   1.00
H492   H     0.61170   0.76500   0.05890   0.06100  Uiso   1.00
C493   C     0.69831   0.82776   0.03649   0.04647  Uani   1.00
H494   H     0.72460   0.84040   0.06630   0.05600  Uiso   1.00
C495   C     0.77990   0.88851   0.97457   0.02270  Uani   1.00
C496   C     0.83616   0.91052   0.00840   0.02880  Uani   1.00
H497   H     0.83280   0.89970   0.04250   0.03500  Uiso   1.00
C498   C     0.89741   0.94879   0.99083   0.03303  Uani   1.00
H499   H     0.93770   0.96470   0.01290   0.04000  Uiso   1.00
C500   C     0.90021   0.96410   0.94112   0.02877  Uani   1.00
H501   H     0.94160   0.99060   0.92820   0.03500  Uiso   1.00
C502   C     0.84028   0.93912   0.91117   0.02313  Uani   1.00
C503   C     0.77311   0.94204   0.82950   0.02620  Uani   1.00
H504   H     0.72480   0.92060   0.83940   0.03100  Uiso   1.00
C505   C     0.89444   0.98515   0.83194   0.03567  Uani   1.00
H506   H     0.94640   0.99990   0.84280   0.04300  Uiso   1.00
C507   C     0.86190   0.99110   0.78622   0.03360  Uani   1.00
H508   H     0.88790   0.01100   0.75900   0.04000  Uiso   1.00
C509   C     0.08049   0.21694   0.89586   0.02323  Uani   1.00
C510   C     0.15901   0.22307   0.86808   0.02127  Uani   1.00
C511   C     0.19236   0.17398   0.84137   0.02223  Uani   1.00
H512   H     0.16520   0.13490   0.84110   0.02700  Uiso   1.00
C513   C     0.26476   0.18148   0.81518   0.02473  Uani   1.00
H514   H     0.28730   0.14800   0.79670   0.03000  Uiso   1.00
C515   C     0.30387   0.23876   0.81647   0.02363  Uani   1.00
C516   C     0.27411   0.28724   0.84474   0.02683  Uani   1.00
H517   H     0.30290   0.32560   0.84640   0.03200  Uiso   1.00
C518   C     0.20187   0.27895   0.87055   0.02580  Uani   1.00
H519   H     0.18100   0.31190   0.89030   0.03100  Uiso   1.00
C520   C     0.42536   0.20328   0.77739   0.02573  Uani   1.00
C521   C     0.43597   0.18368   0.72916   0.03067  Uani   1.00
H522   H     0.40560   0.20220   0.70300   0.03700  Uiso   1.00
C523   C     0.49162   0.13665   0.71964   0.02917  Uani   1.00
H524   H     0.49960   0.12270   0.68660   0.03500  Uiso   1.00
C525   C     0.53599   0.10965   0.75806   0.02350  Uani   1.00
C526   C     0.52541   0.13100   0.80594   0.02777  Uani   1.00
H527   H     0.55650   0.11330   0.83220   0.03300  Uiso   1.00
C528   C     0.46979   0.17802   0.81600   0.02980  Uani   1.00
H529   H     0.46230   0.19260   0.84890   0.03600  Uiso   1.00
C530   C     0.59414   0.05752   0.74896   0.02373  Uani   1.00
Co531  Co    0.80442   0.02647   0.23075   0.01933  Uani   1.00
Co532  Co    0.03440   0.78683   0.04403   0.02367  Uani   1.00
O533   O     0.71572   0.96681   0.18947   0.02497  Uani   1.00
O534   O     0.73869   0.06524   0.17297   0.02817  Uani   1.00
O535   O     0.42137   0.02246   0.04135   0.03537  Uani   1.00
O536   O     0.13919   0.82530   0.08796   0.03200  Uani   1.00
O537   O     0.10040   0.86071   0.01529   0.03173  Uani   1.00
O538   O     0.44470   0.83566   0.41017   0.02590  Uani   1.00
O539   O     0.45967   0.73457   0.40683   0.02900  Uani   1.00
O540   O     0.12865   0.74810   0.28690   0.03190  Uani   1.00
O541   O     0.86755   0.96601   0.28446   0.02980  Uani   1.00
O542   O     0.89459   0.96268   0.20524   0.02810  Uani   1.00
N543   N     0.89594   0.09313   0.24400   0.02830  Uani   1.00
N544   N     0.00910   0.14737   0.23258   0.02697  Uani   1.00
N545   N     0.06475   0.18826   0.16039   0.02320  Uani   1.00
N546   N     0.10967   0.22957   0.08632   0.02523  Uani   1.00
N547   N     0.04958   0.22744   0.01342   0.02503  Uani   1.00
N548   N     0.88528   0.21951   0.48301   0.02940  Uani   1.00
N549   N     0.78409   0.15217   0.48942   0.02530  Uani   1.00
N550   N     0.71911   0.09827   0.42651   0.02317  Uani   1.00
N551   N     0.66266   0.04665   0.35979   0.02397  Uani   1.00
N552   N     0.71470   0.03598   0.28496   0.02523  Uani   1.00
C553   C     0.69833   0.01526   0.16606   0.02147  Uani   1.00
C554   C     0.62720   0.01565   0.13128   0.02130  Uani   1.00
C555   C     0.59265   0.07170   0.11678   0.02580  Uani   1.00
H556   H     0.61710   0.10960   0.12720   0.03100  Uiso   1.00
C557   C     0.52311   0.07329   0.08735   0.02770  Uani   1.00
H558   H     0.49930   0.11180   0.07790   0.03300  Uiso   1.00
C559   C     0.48917   0.01769   0.07206   0.02600  Uani   1.00
C560   C     0.52383   0.96129   0.08452   0.02827  Uani   1.00
H561   H     0.50090   0.92360   0.07250   0.03400  Uiso   1.00
C562   C     0.59248   0.96039   0.11485   0.02557  Uani   1.00
H563   H     0.61590   0.92180   0.12440   0.03100  Uiso   1.00
C564   C     0.35773   0.98039   0.04635   0.02617  Uani   1.00
C565   C     0.31703   0.96543   0.00307   0.02803  Uani   1.00
H566   H     0.33560   0.98130   0.97220   0.03400  Uiso   1.00
C567   C     0.24909   0.92718   0.00517   0.02773  Uani   1.00
H568   H     0.22040   0.91710   0.97560   0.03300  Uiso   1.00
C569   C     0.22245   0.90332   0.05037   0.02343  Uani   1.00
C570   C     0.26445   0.91881   0.09348   0.02533  Uani   1.00
H571   H     0.24650   0.90250   0.12440   0.03000  Uiso   1.00
C572   C     0.33203   0.95767   0.09189   0.02540  Uani   1.00
H573   H     0.36030   0.96860   0.12140   0.03000  Uiso   1.00
C574   C     0.15009   0.86100   0.05201   0.02693  Uani   1.00
C575   C     0.94518   0.11767   0.21080   0.02157  Uani   1.00
H576   H     0.93710   0.11500   0.17600   0.02600  Uiso   1.00
C577   C     0.92869   0.10894   0.28933   0.05317  Uani   1.00
H578   H     0.90610   0.09740   0.32050   0.06400  Uiso   1.00
C579   C     0.99727   0.14302   0.28320   0.04950  Uani   1.00
H580   H     0.03070   0.16050   0.30850   0.06000  Uiso   1.00
C581   C     0.07613   0.17598   0.20824   0.02547  Uani   1.00
C582   C     0.14799   0.18920   0.23369   0.03880  Uani   1.00
H583   H     0.15410   0.17890   0.26770   0.04700  Uiso   1.00
C584   C     0.21002   0.21774   0.20764   0.04507  Uani   1.00
H585   H     0.26030   0.22740   0.22380   0.05400  Uiso   1.00
C586   C     0.19974   0.23239   0.15828   0.03783  Uani   1.00
H587   H     0.24150   0.25270   0.13980   0.04500  Uiso   1.00
C588   C     0.12571   0.21614   0.13696   0.02457  Uani   1.00
C589   C     0.04935   0.20414   0.05826   0.02330  Uani   1.00
H590   H     0.01190   0.17350   0.06960   0.02800  Uiso   1.00
C591   C     0.15090   0.27154   0.05665   0.03897  Uani   1.00
H592   H     0.19670   0.29640   0.06570   0.04700  Uiso   1.00
C593   C     0.11303   0.27013   0.01242   0.03537  Uani   1.00
H594   H     0.12770   0.29480   0.98460   0.04200  Uiso   1.00
C595   C     0.83627   0.18231   0.45856   0.02623  Uani   1.00
H596   H     0.83720   0.17710   0.42360   0.03100  Uiso   1.00
C597   C     0.86343   0.21336   0.53213   0.05090  Uani   1.00
H598   H     0.88830   0.23500   0.55890   0.06100  Uiso   1.00
C599   C     0.80169   0.17224   0.53649   0.04647  Uani   1.00
H600   H     0.77540   0.15960   0.56630   0.05600  Uiso   1.00
C601   C     0.72010   0.11149   0.47457   0.02270  Uani   1.00
C602   C     0.66384   0.08948   0.50840   0.02880  Uani   1.00
H603   H     0.66720   0.10030   0.54250   0.03500  Uiso   1.00
C604   C     0.60259   0.05121   0.49083   0.03303  Uani   1.00
H605   H     0.56230   0.03530   0.51290   0.04000  Uiso   1.00
C606   C     0.59979   0.03590   0.44112   0.02877  Uani   1.00
H607   H     0.55840   0.00940   0.42820   0.03500  Uiso   1.00
C608   C     0.65972   0.06088   0.41117   0.02313  Uani   1.00
C609   C     0.72689   0.05796   0.32950   0.02620  Uani   1.00
H610   H     0.77520   0.07940   0.33940   0.03100  Uiso   1.00
C611   C     0.60556   0.01485   0.33194   0.03567  Uani   1.00
H612   H     0.55360   0.00010   0.34280   0.04300  Uiso   1.00
C613   C     0.63810   0.00890   0.28622   0.03360  Uani   1.00
H614   H     0.61210   0.98900   0.25900   0.04000  Uiso   1.00
C615   C     0.41951   0.78306   0.39586   0.02323  Uani   1.00
C616   C     0.34099   0.77693   0.36808   0.02127  Uani   1.00
C617   C     0.30764   0.82602   0.34137   0.02223  Uani   1.00
H618   H     0.33480   0.86510   0.34110   0.02700  Uiso   1.00
C619   C     0.23524   0.81852   0.31518   0.02473  Uani   1.00
H620   H     0.21270   0.85200   0.29670   0.03000  Uiso   1.00
C621   C     0.19613   0.76124   0.31647   0.02363  Uani   1.00
C622   C     0.22589   0.71276   0.34474   0.02683  Uani   1.00
H623   H     0.19710   0.67440   0.34640   0.03200  Uiso   1.00
C624   C     0.29813   0.72105   0.37055   0.02580  Uani   1.00
H625   H     0.31900   0.68810   0.39030   0.03100  Uiso   1.00
C626   C     0.07464   0.79672   0.27739   0.02573  Uani   1.00
C627   C     0.06403   0.81632   0.22916   0.03067  Uani   1.00
H628   H     0.09440   0.79780   0.20300   0.03700  Uiso   1.00
C629   C     0.00838   0.86335   0.21964   0.02917  Uani   1.00
H630   H     0.00040   0.87730   0.18660   0.03500  Uiso   1.00
C631   C     0.96401   0.89035   0.25806   0.02350  Uani   1.00
C632   C     0.97459   0.86900   0.30594   0.02777  Uani   1.00
H633   H     0.94350   0.88670   0.33220   0.03300  Uiso   1.00
C634   C     0.03021   0.82198   0.31600   0.02980  Uani   1.00
H635   H     0.03770   0.80740   0.34890   0.03600  Uiso   1.00
C636   C     0.90586   0.94248   0.24896   0.02373  Uani   1.00
Co637  Co    0.30442   0.47353   0.76925   0.01933  Uani   1.00
Co638  Co    0.53440   0.71317   0.95597   0.02367  Uani   1.00
O639   O     0.21572   0.53319   0.81053   0.02497  Uani   1.00
O640   O     0.23869   0.43476   0.82703   0.02817  Uani   1.00
O641   O     0.92137   0.47754   0.95865   0.03537  Uani   1.00
O642   O     0.63919   0.67470   0.91204   0.03200  Uani   1.00
O643   O     0.60040   0.63929   0.98471   0.03173  Uani   1.00
O644   O     0.94470   0.66434   0.58983   0.02590  Uani   1.00
O645   O     0.95967   0.76543   0.59317   0.02900  Uani   1.00
O646   O     0.62865   0.75190   0.71310   0.03190  Uani   1.00
O647   O     0.36755   0.53399   0.71554   0.02980  Uani   1.00
O648   O     0.39459   0.53732   0.79476   0.02810  Uani   1.00
N649   N     0.39594   0.40687   0.75600   0.02830  Uani   1.00
N650   N     0.50910   0.35263   0.76742   0.02697  Uani   1.00
N651   N     0.56475   0.31174   0.83961   0.02320  Uani   1.00
N652   N     0.60967   0.27043   0.91368   0.02523  Uani   1.00
N653   N     0.54958   0.27256   0.98658   0.02503  Uani   1.00
N654   N     0.38528   0.28049   0.51699   0.02940  Uani   1.00
N655   N     0.28409   0.34783   0.51058   0.02530  Uani   1.00
N656   N     0.21911   0.40173   0.57349   0.02317  Uani   1.00
N657   N     0.16266   0.45335   0.64021   0.02397  Uani   1.00
N658   N     0.21470   0.46402   0.71504   0.02523  Uani   1.00
C659   C     0.19833   0.48474   0.83394   0.02147  Uani   1.00
C660   C     0.12720   0.48435   0.86872   0.02130  Uani   1.00
C661   C     0.09265   0.42830   0.88322   0.02580  Uani   1.00
H662   H     0.11710   0.39040   0.87280   0.03100  Uiso   1.00
C663   C     0.02311   0.42671   0.91265   0.02770  Uani   1.00
H664   H     0.99930   0.38820   0.92210   0.03300  Uiso   1.00
C665   C     0.98917   0.48231   0.92794   0.02600  Uani   1.00
C666   C     0.02383   0.53871   0.91548   0.02827  Uani   1.00
H667   H     0.00090   0.57640   0.92750   0.03400  Uiso   1.00
C668   C     0.09248   0.53961   0.88515   0.02557  Uani   1.00
H669   H     0.11590   0.57820   0.87560   0.03100  Uiso   1.00
C670   C     0.85773   0.51961   0.95365   0.02617  Uani   1.00
C671   C     0.81703   0.53457   0.99693   0.02803  Uani   1.00
H672   H     0.83560   0.51870   0.02780   0.03400  Uiso   1.00
C673   C     0.74909   0.57282   0.99483   0.02773  Uani   1.00
H674   H     0.72040   0.58290   0.02440   0.03300  Uiso   1.00
C675   C     0.72245   0.59668   0.94963   0.02343  Uani   1.00
C676   C     0.76445   0.58119   0.90652   0.02533  Uani   1.00
H677   H     0.74650   0.59750   0.87560   0.03000  Uiso   1.00
C678   C     0.83203   0.54233   0.90811   0.02540  Uani   1.00
H679   H     0.86030   0.53140   0.87860   0.03000  Uiso   1.00
C680   C     0.65009   0.63900   0.94799   0.02693  Uani   1.00
C681   C     0.44518   0.38233   0.78920   0.02157  Uani   1.00
H682   H     0.43710   0.38500   0.82400   0.02600  Uiso   1.00
C683   C     0.42869   0.39106   0.71067   0.05317  Uani   1.00
H684   H     0.40610   0.40260   0.67950   0.06400  Uiso   1.00
C685   C     0.49727   0.35698   0.71680   0.04950  Uani   1.00
H686   H     0.53070   0.33950   0.69150   0.06000  Uiso   1.00
C687   C     0.57613   0.32402   0.79176   0.02547  Uani   1.00
C688   C     0.64799   0.31080   0.76631   0.03880  Uani   1.00
H689   H     0.65410   0.32110   0.73230   0.04700  Uiso   1.00
C690   C     0.71002   0.28226   0.79236   0.04507  Uani   1.00
H691   H     0.76030   0.27260   0.77620   0.05400  Uiso   1.00
C692   C     0.69974   0.26761   0.84172   0.03783  Uani   1.00
H693   H     0.74150   0.24730   0.86020   0.04500  Uiso   1.00
C694   C     0.62571   0.28386   0.86304   0.02457  Uani   1.00
C695   C     0.54935   0.29586   0.94174   0.02330  Uani   1.00
H696   H     0.51190   0.32650   0.93040   0.02800  Uiso   1.00
C697   C     0.65090   0.22846   0.94335   0.03897  Uani   1.00
H698   H     0.69670   0.20360   0.93430   0.04700  Uiso   1.00
C699   C     0.61303   0.22987   0.98758   0.03537  Uani   1.00
H700   H     0.62770   0.20520   0.01540   0.04200  Uiso   1.00
C701   C     0.33627   0.31769   0.54144   0.02623  Uani   1.00
H702   H     0.33720   0.32290   0.57640   0.03100  Uiso   1.00
C703   C     0.36343   0.28664   0.46787   0.05090  Uani   1.00
H704   H     0.38830   0.26500   0.44110   0.06100  Uiso   1.00
C705   C     0.30169   0.32776   0.46351   0.04647  Uani   1.00
H706   H     0.27540   0.34040   0.43370   0.05600  Uiso   1.00
C707   C     0.22010   0.38851   0.52543   0.02270  Uani   1.00
C708   C     0.16384   0.41052   0.49160   0.02880  Uani   1.00
H709   H     0.16720   0.39970   0.45750   0.03500  Uiso   1.00
C710   C     0.10259   0.44879   0.50917   0.03303  Uani   1.00
H711   H     0.06230   0.46470   0.48710   0.04000  Uiso   1.00
C712   C     0.09979   0.46410   0.55888   0.02877  Uani   1.00
H713   H     0.05840   0.49060   0.57180   0.03500  Uiso   1.00
C714   C     0.15972   0.43912   0.58883   0.02313  Uani   1.00
C715   C     0.22689   0.44204   0.67050   0.02620  Uani   1.00
H716   H     0.27520   0.42060   0.66060   0.03100  Uiso   1.00
C717   C     0.10556   0.48515   0.66806   0.03567  Uani   1.00
H718   H     0.05360   0.49990   0.65720   0.04300  Uiso   1.00
C719   C     0.13810   0.49110   0.71378   0.03360  Uani   1.00
H720   H     0.11210   0.51100   0.74100   0.04000  Uiso   1.00
C721   C     0.91951   0.71694   0.60414   0.02323  Uani   1.00
C722   C     0.84099   0.72307   0.63192   0.02127  Uani   1.00
C723   C     0.80764   0.67398   0.65863   0.02223  Uani   1.00
H724   H     0.83480   0.63490   0.65890   0.02700  Uiso   1.00
C725   C     0.73524   0.68148   0.68482   0.02473  Uani   1.00
H726   H     0.71270   0.64800   0.70330   0.03000  Uiso   1.00
C727   C     0.69613   0.73876   0.68353   0.02363  Uani   1.00
C728   C     0.72589   0.78724   0.65526   0.02683  Uani   1.00
H729   H     0.69710   0.82560   0.65360   0.03200  Uiso   1.00
C730   C     0.79813   0.77895   0.62945   0.02580  Uani   1.00
H731   H     0.81900   0.81190   0.60970   0.03100  Uiso   1.00
C732   C     0.57464   0.70328   0.72261   0.02573  Uani   1.00
C733   C     0.56403   0.68368   0.77084   0.03067  Uani   1.00
H734   H     0.59440   0.70220   0.79700   0.03700  Uiso   1.00
C735   C     0.50838   0.63665   0.78036   0.02917  Uani   1.00
H736   H     0.50040   0.62270   0.81340   0.03500  Uiso   1.00
C737   C     0.46401   0.60965   0.74194   0.02350  Uani   1.00
C738   C     0.47459   0.63100   0.69406   0.02777  Uani   1.00
H739   H     0.44350   0.61330   0.66780   0.03300  Uiso   1.00
C740   C     0.53021   0.67802   0.68400   0.02980  Uani   1.00
H741   H     0.53770   0.69260   0.65110   0.03600  Uiso   1.00
C742   C     0.40586   0.55752   0.75104   0.02373  Uani   1.00
Co743  Co    0.19558   0.52647   0.26925   0.01933  Uani   1.00
Co744  Co    0.96560   0.28683   0.45597   0.02367  Uani   1.00
O745   O     0.28428   0.46681   0.31053   0.02497  Uani   1.00
O746   O     0.26131   0.56524   0.32703   0.02817  Uani   1.00
O747   O     0.57863   0.52246   0.45865   0.03537  Uani   1.00
O748   O     0.86081   0.32530   0.41204   0.03200  Uani   1.00
O749   O     0.89960   0.36071   0.48471   0.03173  Uani   1.00
O750   O     0.55530   0.33566   0.08983   0.02590  Uani   1.00
O751   O     0.54033   0.23457   0.09317   0.02900  Uani   1.00
O752   O     0.87135   0.24810   0.21310   0.03190  Uani   1.00
O753   O     0.13245   0.46601   0.21554   0.02980  Uani   1.00
O754   O     0.10541   0.46268   0.29476   0.02810  Uani   1.00
N755   N     0.10406   0.59313   0.25600   0.02830  Uani   1.00
N756   N     0.99090   0.64737   0.26742   0.02697  Uani   1.00
N757   N     0.93525   0.68826   0.33961   0.02320  Uani   1.00
N758   N     0.89033   0.72957   0.41368   0.02523  Uani   1.00
N759   N     0.95042   0.72744   0.48658   0.02503  Uani   1.00
N760   N     0.11472   0.71951   0.01699   0.02940  Uani   1.00
N761   N     0.21591   0.65217   0.01058   0.02530  Uani   1.00
N762   N     0.28089   0.59827   0.07349   0.02317  Uani   1.00
N763   N     0.33734   0.54665   0.14021   0.02397  Uani   1.00
N764   N     0.28530   0.53598   0.21504   0.02523  Uani   1.00
C765   C     0.30167   0.51526   0.33394   0.02147  Uani   1.00
C766   C     0.37280   0.51565   0.36872   0.02130  Uani   1.00
C767   C     0.40735   0.57170   0.38322   0.02580  Uani   1.00
H768   H     0.38290   0.60960   0.37280   0.03100  Uiso   1.00
C769   C     0.47689   0.57329   0.41265   0.02770  Uani   1.00
H770   H     0.50070   0.61180   0.42210   0.03300  Uiso   1.00
C771   C     0.51083   0.51769   0.42794   0.02600  Uani   1.00
C772   C     0.47617   0.46129   0.41548   0.02827  Uani   1.00
H773   H     0.49910   0.42360   0.42750   0.03400  Uiso   1.00
C774   C     0.40752   0.46039   0.38515   0.02557  Uani   1.00
H775   H     0.38410   0.42180   0.37560   0.03100  Uiso   1.00
C776   C     0.64227   0.48039   0.45365   0.02617  Uani   1.00
C777   C     0.68297   0.46543   0.49693   0.02803  Uani   1.00
H778   H     0.66440   0.48130   0.52780   0.03400  Uiso   1.00
C779   C     0.75091   0.42718   0.49483   0.02773  Uani   1.00
H780   H     0.77960   0.41710   0.52440   0.03300  Uiso   1.00
C781   C     0.77755   0.40332   0.44963   0.02343  Uani   1.00
C782   C     0.73555   0.41881   0.40652   0.02533  Uani   1.00
H783   H     0.75350   0.40250   0.37560   0.03000  Uiso   1.00
C784   C     0.66797   0.45767   0.40811   0.02540  Uani   1.00
H785   H     0.63970   0.46860   0.37860   0.03000  Uiso   1.00
C786   C     0.84991   0.36100   0.44799   0.02693  Uani   1.00
C787   C     0.05482   0.61767   0.28920   0.02157  Uani   1.00
H788   H     0.06290   0.61500   0.32400   0.02600  Uiso   1.00
C789   C     0.07131   0.60894   0.21067   0.05317  Uani   1.00
H790   H     0.09390   0.59740   0.17950   0.06400  Uiso   1.00
C791   C     0.00273   0.64302   0.21680   0.04950  Uani   1.00
H792   H     0.96930   0.66050   0.19150   0.06000  Uiso   1.00
C793   C     0.92387   0.67598   0.29176   0.02547  Uani   1.00
C794   C     0.85201   0.68920   0.26631   0.03880  Uani   1.00
H795   H     0.84590   0.67890   0.23230   0.04700  Uiso   1.00
C796   C     0.78998   0.71774   0.29236   0.04507  Uani   1.00
H797   H     0.73970   0.72740   0.27620   0.05400  Uiso   1.00
C798   C     0.80026   0.73239   0.34172   0.03783  Uani   1.00
H799   H     0.75850   0.75270   0.36020   0.04500  Uiso   1.00
C800   C     0.87429   0.71614   0.36304   0.02457  Uani   1.00
C801   C     0.95065   0.70414   0.44174   0.02330  Uani   1.00
H802   H     0.98810   0.67350   0.43040   0.02800  Uiso   1.00
C803   C     0.84910   0.77154   0.44335   0.03897  Uani   1.00
H804   H     0.80330   0.79640   0.43430   0.04700  Uiso   1.00
C805   C     0.88697   0.77013   0.48758   0.03537  Uani   1.00
H806   H     0.87230   0.79480   0.51540   0.04200  Uiso   1.00
C807   C     0.16373   0.68231   0.04144   0.02623  Uani   1.00
H808   H     0.16280   0.67710   0.07640   0.03100  Uiso   1.00
C809   C     0.13657   0.71336   0.96787   0.05090  Uani   1.00
H810   H     0.11170   0.73500   0.94110   0.06100  Uiso   1.00
C811   C     0.19831   0.67224   0.96351   0.04647  Uani   1.00
H812   H     0.22460   0.65960   0.93370   0.05600  Uiso   1.00
C813   C     0.27990   0.61149   0.02543   0.02270  Uani   1.00
C814   C     0.33616   0.58948   0.99160   0.02880  Uani   1.00
H815   H     0.33280   0.60030   0.95750   0.03500  Uiso   1.00
C816   C     0.39741   0.55121   0.00917   0.03303  Uani   1.00
H817   H     0.43770   0.53530   0.98710   0.04000  Uiso   1.00
C818   C     0.40021   0.53590   0.05888   0.02877  Uani   1.00
H819   H     0.44160   0.50940   0.07180   0.03500  Uiso   1.00
C820   C     0.34028   0.56088   0.08883   0.02313  Uani   1.00
C821   C     0.27311   0.55796   0.17050   0.02620  Uani   1.00
H822   H     0.22480   0.57940   0.16060   0.03100  Uiso   1.00
C823   C     0.39444   0.51485   0.16806   0.03567  Uani   1.00
H824   H     0.44640   0.50010   0.15720   0.04300  Uiso   1.00
C825   C     0.36190   0.50890   0.21378   0.03360  Uani   1.00
H826   H     0.38790   0.48900   0.24100   0.04000  Uiso   1.00
C827   C     0.58049   0.28306   0.10414   0.02323  Uani   1.00
C828   C     0.65901   0.27693   0.13192   0.02127  Uani   1.00
C829   C     0.69236   0.32602   0.15863   0.02223  Uani   1.00
H830   H     0.66520   0.36510   0.15890   0.02700  Uiso   1.00
C831   C     0.76476   0.31852   0.18482   0.02473  Uani   1.00
H832   H     0.78730   0.35200   0.20330   0.03000  Uiso   1.00
C833   C     0.80387   0.26124   0.18353   0.02363  Uani   1.00
C834   C     0.77411   0.21276   0.15526   0.02683  Uani   1.00
H835   H     0.80290   0.17440   0.15360   0.03200  Uiso   1.00
C836   C     0.70187   0.22105   0.12945   0.02580  Uani   1.00
H837   H     0.68100   0.18810   0.10970   0.03100  Uiso   1.00
C838   C     0.92536   0.29672   0.22261   0.02573  Uani   1.00
C839   C     0.93597   0.31632   0.27084   0.03067  Uani   1.00
H840   H     0.90560   0.29780   0.29700   0.03700  Uiso   1.00
C841   C     0.99162   0.36335   0.28036   0.02917  Uani   1.00
H842   H     0.99960   0.37730   0.31340   0.03500  Uiso   1.00
C843   C     0.03599   0.39035   0.24194   0.02350  Uani   1.00
C844   C     0.02541   0.36900   0.19406   0.02777  Uani   1.00
H845   H     0.05650   0.38670   0.16780   0.03300  Uiso   1.00
C846   C     0.96979   0.32198   0.18400   0.02980  Uani   1.00
H847   H     0.96230   0.30740   0.15110   0.03600  Uiso   1.00
C848   C     0.09414   0.44248   0.25104   0.02373  Uani   1.00
loop_
_atom_site_aniso_label
_atom_site_aniso_U_11
_atom_site_aniso_U_22
_atom_site_aniso_U_33
_atom_site_aniso_U_12
_atom_site_aniso_U_13
_atom_site_aniso_U_23
Co1       0.01852   0.02216   0.01731  -0.00076   0.00153  -0.00019
Co2       0.01827   0.02937   0.02337   0.00036  -0.00272  -0.00429
O3        0.02730   0.02230   0.02530  -0.00170   0.00570   0.00030
O4        0.03000   0.02760   0.02690  -0.01050   0.01000  -0.00640
O5        0.02690   0.03900   0.04020  -0.01190   0.01490  -0.01450
O6        0.02630   0.04180   0.02790  -0.00580  -0.00080  -0.00610
O7        0.02130   0.03750   0.03640  -0.00500   0.00680  -0.00960
O8        0.02540   0.02670   0.02560  -0.00180   0.00520   0.00280
O9        0.02670   0.02940   0.03090   0.00860   0.01000   0.00780
O10       0.02340   0.02310   0.04920   0.00430   0.01480   0.00770
O11       0.03030   0.03450   0.02460   0.01190  -0.00530  -0.00580
O12       0.02810   0.03490   0.02130   0.00640   0.00210  -0.00030
N13       0.02920   0.03300   0.02270  -0.00770   0.00720  -0.00370
N14       0.02470   0.03330   0.02290  -0.00700   0.00730  -0.00190
N15       0.01910   0.02400   0.02650  -0.00300   0.00240   0.00170
N16       0.02050   0.02820   0.02700  -0.00610  -0.00180   0.00210
N17       0.02190   0.02560   0.02760  -0.00290  -0.00270  -0.00160
N18       0.02530   0.03910   0.02380  -0.00570  -0.00460   0.00330
N19       0.02300   0.03260   0.02030  -0.00180  -0.00420   0.00240
N20       0.02000   0.02740   0.02210   0.00180  -0.00280   0.00150
N21       0.02050   0.02830   0.02310   0.00030  -0.00220   0.00240
N22       0.02250   0.03050   0.02270   0.00130  -0.00030   0.00290
C23       0.02240   0.02430   0.01770  -0.00240  -0.00080  -0.00010
C24       0.02210   0.02390   0.01790  -0.00510   0.00160  -0.00110
C25       0.02600   0.02310   0.02830  -0.00480   0.00300   0.00000
C27       0.02670   0.02560   0.03080  -0.00170   0.00260  -0.00560
C29       0.02200   0.03270   0.02330  -0.00600   0.00550  -0.00530
C30       0.02820   0.02610   0.03050  -0.00830   0.00810   0.00060
C32       0.02700   0.02310   0.02660  -0.00280   0.00420  -0.00200
C34       0.01950   0.02680   0.03220  -0.00130   0.00590  -0.00340
C35       0.02170   0.03790   0.02450  -0.00110   0.00220  -0.00590
C37       0.02100   0.03820   0.02400  -0.00010   0.00470   0.00000
C39       0.01670   0.02650   0.02710   0.00430   0.00110  -0.00160
C40       0.02290   0.02790   0.02520   0.00500  -0.00140  -0.00270
C42       0.02410   0.02710   0.02500   0.00310   0.00590   0.00190
C44       0.01910   0.03230   0.02940   0.00240  -0.00080   0.00000
C45       0.01820   0.02390   0.02260   0.00020   0.00510   0.00150
C47       0.05140   0.08300   0.02510  -0.03520   0.00900  -0.00780
C49       0.04700   0.07700   0.02450  -0.02970   0.00830  -0.00350
C51       0.02130   0.02940   0.02570  -0.00330   0.00280   0.00230
C52       0.02680   0.06400   0.02560  -0.00890   0.00610   0.00620
C54       0.02250   0.07800   0.03470  -0.01500   0.00380   0.01160
C56       0.02390   0.05620   0.03340  -0.01360  -0.00290   0.01020
C58       0.02220   0.02660   0.02490  -0.00210  -0.00030   0.00610
C59       0.01760   0.02470   0.02760  -0.00220   0.00080   0.00010
C61       0.03710   0.04240   0.03740  -0.02120  -0.00330   0.00150
C63       0.03790   0.03540   0.03280  -0.01590  -0.00300  -0.00410
C65       0.02300   0.03440   0.02130  -0.00280  -0.00550   0.00320
C67       0.04980   0.08100   0.02190  -0.02910  -0.00540   0.01100
C69       0.04620   0.07300   0.02020  -0.02610  -0.00930   0.00440
C71       0.01990   0.02410   0.02410   0.00240  -0.00260   0.00190
C72       0.02910   0.03570   0.02160  -0.00240  -0.00720   0.00270
C74       0.03140   0.03870   0.02900  -0.00770  -0.01200   0.00290
C76       0.02750   0.03020   0.02860  -0.00570  -0.00390   0.00010
C78       0.02180   0.02410   0.02350   0.00410  -0.00240   0.00080
C79       0.02190   0.03310   0.02360  -0.00160  -0.00220   0.00070
C81       0.02520   0.04950   0.03230  -0.00970  -0.00390   0.00860
C83       0.02720   0.04570   0.02790  -0.00890  -0.00250   0.00910
C85       0.02130   0.02920   0.01920   0.00320  -0.00060   0.00240
C86       0.02000   0.02490   0.01890   0.00320   0.00040   0.00500
C87       0.02300   0.02120   0.02250  -0.00270   0.00030   0.00050
C89       0.02420   0.02220   0.02780   0.00250   0.00470  -0.00120
C91       0.01760   0.02290   0.03040   0.00280   0.00330   0.00610
C92       0.02510   0.01860   0.03680   0.00040   0.00210   0.00210
C94       0.02720   0.02070   0.02950   0.00660   0.00370   0.00070
C96       0.01820   0.02190   0.03710   0.00040   0.00830   0.00340
C97       0.02550   0.03450   0.03200   0.00470   0.00060   0.00730
C99       0.02550   0.03670   0.02530   0.00520   0.00200   0.00140
C101      0.01650   0.02720   0.02680   0.00110   0.00310   0.00210
C102      0.02630   0.02870   0.02830   0.00340   0.00100   0.00160
C104      0.02970   0.03090   0.02880   0.00290   0.00750  -0.00170
C106      0.01830   0.02890   0.02400  -0.00060   0.00170  -0.00100
Co107     0.01852   0.02216   0.01731  -0.00076  -0.00153   0.00019
Co108     0.01827   0.02937   0.02337   0.00036   0.00272   0.00429
O109      0.02730   0.02230   0.02530  -0.00170  -0.00570  -0.00030
O110      0.03000   0.02760   0.02690  -0.01050  -0.01000   0.00640
O111      0.02690   0.03900   0.04020  -0.01190  -0.01490   0.01450
O112      0.02630   0.04180   0.02790  -0.00580   0.00080   0.00610
O113      0.02130   0.03750   0.03640  -0.00500  -0.00680   0.00960
O114      0.02540   0.02670   0.02560  -0.00180  -0.00520  -0.00280
O115      0.02670   0.02940   0.03090   0.00860  -0.01000  -0.00780
O116      0.02340   0.02310   0.04920   0.00430  -0.01480  -0.00770
O117      0.03030   0.03450   0.02460   0.01190   0.00530   0.00580
O118      0.02810   0.03490   0.02130   0.00640  -0.00210   0.00030
N119      0.02920   0.03300   0.02270  -0.00770  -0.00720   0.00370
N120      0.02470   0.03330   0.02290  -0.00700  -0.00730   0.00190
N121      0.01910   0.02400   0.02650  -0.00300  -0.00240  -0.00170
N122      0.02050   0.02820   0.02700  -0.00610   0.00180  -0.00210
N123      0.02190   0.02560   0.02760  -0.00290   0.00270   0.00160
N124      0.02530   0.03910   0.02380  -0.00570   0.00460  -0.00330
N125      0.02300   0.03260   0.02030  -0.00180   0.00420  -0.00240
N126      0.02000   0.02740   0.02210   0.00180   0.00280  -0.00150
N127      0.02050   0.02830   0.02310   0.00030   0.00220  -0.00240
N128      0.02250   0.03050   0.02270   0.00130   0.00030  -0.00290
C129      0.02240   0.02430   0.01770  -0.00240   0.00080   0.00010
C130      0.02210   0.02390   0.01790  -0.00510  -0.00160   0.00110
C131      0.02600   0.02310   0.02830  -0.00480  -0.00300   0.00000
C133      0.02670   0.02560   0.03080  -0.00170  -0.00260   0.00560
C135      0.02200   0.03270   0.02330  -0.00600  -0.00550   0.00530
C136      0.02820   0.02610   0.03050  -0.00830  -0.00810  -0.00060
C138      0.02700   0.02310   0.02660  -0.00280  -0.00420   0.00200
C140      0.01950   0.02680   0.03220  -0.00130  -0.00590   0.00340
C141      0.02170   0.03790   0.02450  -0.00110  -0.00220   0.00590
C143      0.02100   0.03820   0.02400  -0.00010  -0.00470   0.00000
C145      0.01670   0.02650   0.02710   0.00430  -0.00110   0.00160
C146      0.02290   0.02790   0.02520   0.00500   0.00140   0.00270
C148      0.02410   0.02710   0.02500   0.00310  -0.00590  -0.00190
C150      0.01910   0.03230   0.02940   0.00240   0.00080   0.00000
C151      0.01820   0.02390   0.02260   0.00020  -0.00510  -0.00150
C153      0.05140   0.08300   0.02510  -0.03520  -0.00900   0.00780
C155      0.04700   0.07700   0.02450  -0.02970  -0.00830   0.00350
C157      0.02130   0.02940   0.02570  -0.00330  -0.00280  -0.00230
C158      0.02680   0.06400   0.02560  -0.00890  -0.00610  -0.00620
C160      0.02250   0.07800   0.03470  -0.01500  -0.00380  -0.01160
C162      0.02390   0.05620   0.03340  -0.01360   0.00290  -0.01020
C164      0.02220   0.02660   0.02490  -0.00210   0.00030  -0.00610
C165      0.01760   0.02470   0.02760  -0.00220  -0.00080  -0.00010
C167      0.03710   0.04240   0.03740  -0.02120   0.00330  -0.00150
C169      0.03790   0.03540   0.03280  -0.01590   0.00300   0.00410
C171      0.02300   0.03440   0.02130  -0.00280   0.00550  -0.00320
C173      0.04980   0.08100   0.02190  -0.02910   0.00540  -0.01100
C175      0.04620   0.07300   0.02020  -0.02610   0.00930  -0.00440
C177      0.01990   0.02410   0.02410   0.00240   0.00260  -0.00190
C178      0.02910   0.03570   0.02160  -0.00240   0.00720  -0.00270
C180      0.03140   0.03870   0.02900  -0.00770   0.01200  -0.00290
C182      0.02750   0.03020   0.02860  -0.00570   0.00390  -0.00010
C184      0.02180   0.02410   0.02350   0.00410   0.00240  -0.00080
C185      0.02190   0.03310   0.02360  -0.00160   0.00220  -0.00070
C187      0.02520   0.04950   0.03230  -0.00970   0.00390  -0.00860
C189      0.02720   0.04570   0.02790  -0.00890   0.00250  -0.00910
C191      0.02130   0.02920   0.01920   0.00320   0.00060  -0.00240
C192      0.02000   0.02490   0.01890   0.00320  -0.00040  -0.00500
C193      0.02300   0.02120   0.02250  -0.00270  -0.00030  -0.00050
C195      0.02420   0.02220   0.02780   0.00250  -0.00470   0.00120
C197      0.01760   0.02290   0.03040   0.00280  -0.00330  -0.00610
C198      0.02510   0.01860   0.03680   0.00040  -0.00210  -0.00210
C200      0.02720   0.02070   0.02950   0.00660  -0.00370  -0.00070
C202      0.01820   0.02190   0.03710   0.00040  -0.00830  -0.00340
C203      0.02550   0.03450   0.03200   0.00470  -0.00060  -0.00730
C205      0.02550   0.03670   0.02530   0.00520  -0.00200  -0.00140
C207      0.01650   0.02720   0.02680   0.00110  -0.00310  -0.00210
C208      0.02630   0.02870   0.02830   0.00340  -0.00100  -0.00160
C210      0.02970   0.03090   0.02880   0.00290  -0.00750   0.00170
C212      0.01830   0.02890   0.02400  -0.00060  -0.00170   0.00100
Co213     0.01852   0.02216   0.01731   0.00076   0.00153   0.00019
Co214     0.01827   0.02937   0.02337  -0.00036  -0.00272   0.00429
O215      0.02730   0.02230   0.02530   0.00170   0.00570  -0.00030
O216      0.03000   0.02760   0.02690   0.01050   0.01000   0.00640
O217      0.02690   0.03900   0.04020   0.01190   0.01490   0.01450
O218      0.02630   0.04180   0.02790   0.00580  -0.00080   0.00610
O219      0.02130   0.03750   0.03640   0.00500   0.00680   0.00960
O220      0.02540   0.02670   0.02560   0.00180   0.00520  -0.00280
O221      0.02670   0.02940   0.03090  -0.00860   0.01000  -0.00780
O222      0.02340   0.02310   0.04920  -0.00430   0.01480  -0.00770
O223      0.03030   0.03450   0.02460  -0.01190  -0.00530   0.00580
O224      0.02810   0.03490   0.02130  -0.00640   0.00210   0.00030
N225      0.02920   0.03300   0.02270   0.00770   0.00720   0.00370
N226      0.02470   0.03330   0.02290   0.00700   0.00730   0.00190
N227      0.01910   0.02400   0.02650   0.00300   0.00240  -0.00170
N228      0.02050   0.02820   0.02700   0.00610  -0.00180  -0.00210
N229      0.02190   0.02560   0.02760   0.00290  -0.00270   0.00160
N230      0.02530   0.03910   0.02380   0.00570  -0.00460  -0.00330
N231      0.02300   0.03260   0.02030   0.00180  -0.00420  -0.00240
N232      0.02000   0.02740   0.02210  -0.00180  -0.00280  -0.00150
N233      0.02050   0.02830   0.02310  -0.00030  -0.00220  -0.00240
N234      0.02250   0.03050   0.02270  -0.00130  -0.00030  -0.00290
C235      0.02240   0.02430   0.01770   0.00240  -0.00080   0.00010
C236      0.02210   0.02390   0.01790   0.00510   0.00160   0.00110
C237      0.02600   0.02310   0.02830   0.00480   0.00300   0.00000
C239      0.02670   0.02560   0.03080   0.00170   0.00260   0.00560
C241      0.02200   0.03270   0.02330   0.00600   0.00550   0.00530
C242      0.02820   0.02610   0.03050   0.00830   0.00810  -0.00060
C244      0.02700   0.02310   0.02660   0.00280   0.00420   0.00200
C246      0.01950   0.02680   0.03220   0.00130   0.00590   0.00340
C247      0.02170   0.03790   0.02450   0.00110   0.00220   0.00590
C249      0.02100   0.03820   0.02400   0.00010   0.00470   0.00000
C251      0.01670   0.02650   0.02710  -0.00430   0.00110   0.00160
C252      0.02290   0.02790   0.02520  -0.00500  -0.00140   0.00270
C254      0.02410   0.02710   0.02500  -0.00310   0.00590  -0.00190
C256      0.01910   0.03230   0.02940  -0.00240  -0.00080   0.00000
C257      0.01820   0.02390   0.02260  -0.00020   0.00510  -0.00150
C259      0.05140   0.08300   0.02510   0.03520   0.00900   0.00780
C261      0.04700   0.07700   0.02450   0.02970   0.00830   0.00350
C263      0.02130   0.02940   0.02570   0.00330   0.00280  -0.00230
C264      0.02680   0.06400   0.02560   0.00890   0.00610  -0.00620
C266      0.02250   0.07800   0.03470   0.01500   0.00380  -0.01160
C268      0.02390   0.05620   0.03340   0.01360  -0.00290  -0.01020
C270      0.02220   0.02660   0.02490   0.00210  -0.00030  -0.00610
C271      0.01760   0.02470   0.02760   0.00220   0.00080  -0.00010
C273      0.03710   0.04240   0.03740   0.02120  -0.00330  -0.00150
C275      0.03790   0.03540   0.03280   0.01590  -0.00300   0.00410
C277      0.02300   0.03440   0.02130   0.00280  -0.00550  -0.00320
C279      0.04980   0.08100   0.02190   0.02910  -0.00540  -0.01100
C281      0.04620   0.07300   0.02020   0.02610  -0.00930  -0.00440
C283      0.01990   0.02410   0.02410  -0.00240  -0.00260  -0.00190
C284      0.02910   0.03570   0.02160   0.00240  -0.00720  -0.00270
C286      0.03140   0.03870   0.02900   0.00770  -0.01200  -0.00290
C288      0.02750   0.03020   0.02860   0.00570  -0.00390  -0.00010
C290      0.02180   0.02410   0.02350  -0.00410  -0.00240  -0.00080
C291      0.02190   0.03310   0.02360   0.00160  -0.00220  -0.00070
C293      0.02520   0.04950   0.03230   0.00970  -0.00390  -0.00860
C295      0.02720   0.04570   0.02790   0.00890  -0.00250  -0.00910
C297      0.02130   0.02920   0.01920  -0.00320  -0.00060  -0.00240
C298      0.02000   0.02490   0.01890  -0.00320   0.00040  -0.00500
C299      0.02300   0.02120   0.02250   0.00270   0.00030  -0.00050
C301      0.02420   0.02220   0.02780  -0.00250   0.00470   0.00120
C303      0.01760   0.02290   0.03040  -0.00280   0.00330  -0.00610
C304      0.02510   0.01860   0.03680  -0.00040   0.00210  -0.00210
C306      0.02720   0.02070   0.02950  -0.00660   0.00370  -0.00070
C308      0.01820   0.02190   0.03710  -0.00040   0.00830  -0.00340
C309      0.02550   0.03450   0.03200  -0.00470   0.00060  -0.00730
C311      0.02550   0.03670   0.02530  -0.00520   0.00200  -0.00140
C313      0.01650   0.02720   0.02680  -0.00110   0.00310  -0.00210
C314      0.02630   0.02870   0.02830  -0.00340   0.00100  -0.00160
C316      0.02970   0.03090   0.02880  -0.00290   0.00750   0.00170
C318      0.01830   0.02890   0.02400   0.00060   0.00170   0.00100
Co319     0.01852   0.02216   0.01731   0.00076  -0.00153  -0.00019
Co320     0.01827   0.02937   0.02337  -0.00036   0.00272  -0.00429
O321      0.02730   0.02230   0.02530   0.00170  -0.00570   0.00030
O322      0.03000   0.02760   0.02690   0.01050  -0.01000  -0.00640
O323      0.02690   0.03900   0.04020   0.01190  -0.01490  -0.01450
O324      0.02630   0.04180   0.02790   0.00580   0.00080  -0.00610
O325      0.02130   0.03750   0.03640   0.00500  -0.00680  -0.00960
O326      0.02540   0.02670   0.02560   0.00180  -0.00520   0.00280
O327      0.02670   0.02940   0.03090  -0.00860  -0.01000   0.00780
O328      0.02340   0.02310   0.04920  -0.00430  -0.01480   0.00770
O329      0.03030   0.03450   0.02460  -0.01190   0.00530  -0.00580
O330      0.02810   0.03490   0.02130  -0.00640  -0.00210  -0.00030
N331      0.02920   0.03300   0.02270   0.00770  -0.00720  -0.00370
N332      0.02470   0.03330   0.02290   0.00700  -0.00730  -0.00190
N333      0.01910   0.02400   0.02650   0.00300  -0.00240   0.00170
N334      0.02050   0.02820   0.02700   0.00610   0.00180   0.00210
N335      0.02190   0.02560   0.02760   0.00290   0.00270  -0.00160
N336      0.02530   0.03910   0.02380   0.00570   0.00460   0.00330
N337      0.02300   0.03260   0.02030   0.00180   0.00420   0.00240
N338      0.02000   0.02740   0.02210  -0.00180   0.00280   0.00150
N339      0.02050   0.02830   0.02310  -0.00030   0.00220   0.00240
N340      0.02250   0.03050   0.02270  -0.00130   0.00030   0.00290
C341      0.02240   0.02430   0.01770   0.00240   0.00080  -0.00010
C342      0.02210   0.02390   0.01790   0.00510  -0.00160  -0.00110
C343      0.02600   0.02310   0.02830   0.00480  -0.00300   0.00000
C345      0.02670   0.02560   0.03080   0.00170  -0.00260  -0.00560
C347      0.02200   0.03270   0.02330   0.00600  -0.00550  -0.00530
C348      0.02820   0.02610   0.03050   0.00830  -0.00810   0.00060
C350      0.02700   0.02310   0.02660   0.00280  -0.00420  -0.00200
C352      0.01950   0.02680   0.03220   0.00130  -0.00590  -0.00340
C353      0.02170   0.03790   0.02450   0.00110  -0.00220  -0.00590
C355      0.02100   0.03820   0.02400   0.00010  -0.00470   0.00000
C357      0.01670   0.02650   0.02710  -0.00430  -0.00110  -0.00160
C358      0.02290   0.02790   0.02520  -0.00500   0.00140  -0.00270
C360      0.02410   0.02710   0.02500  -0.00310  -0.00590   0.00190
C362      0.01910   0.03230   0.02940  -0.00240   0.00080   0.00000
C363      0.01820   0.02390   0.02260  -0.00020  -0.00510   0.00150
C365      0.05140   0.08300   0.02510   0.03520  -0.00900  -0.00780
C367      0.04700   0.07700   0.02450   0.02970  -0.00830  -0.00350
C369      0.02130   0.02940   0.02570   0.00330  -0.00280   0.00230
C370      0.02680   0.06400   0.02560   0.00890  -0.00610   0.00620
C372      0.02250   0.07800   0.03470   0.01500  -0.00380   0.01160
C374      0.02390   0.05620   0.03340   0.01360   0.00290   0.01020
C376      0.02220   0.02660   0.02490   0.00210   0.00030   0.00610
C377      0.01760   0.02470   0.02760   0.00220  -0.00080   0.00010
C379      0.03710   0.04240   0.03740   0.02120   0.00330   0.00150
C381      0.03790   0.03540   0.03280   0.01590   0.00300  -0.00410
C383      0.02300   0.03440   0.02130   0.00280   0.00550   0.00320
C385      0.04980   0.08100   0.02190   0.02910   0.00540   0.01100
C387      0.04620   0.07300   0.02020   0.02610   0.00930   0.00440
C389      0.01990   0.02410   0.02410  -0.00240   0.00260   0.00190
C390      0.02910   0.03570   0.02160   0.00240   0.00720   0.00270
C392      0.03140   0.03870   0.02900   0.00770   0.01200   0.00290
C394      0.02750   0.03020   0.02860   0.00570   0.00390   0.00010
C396      0.02180   0.02410   0.02350  -0.00410   0.00240   0.00080
C397      0.02190   0.03310   0.02360   0.00160   0.00220   0.00070
C399      0.02520   0.04950   0.03230   0.00970   0.00390   0.00860
C401      0.02720   0.04570   0.02790   0.00890   0.00250   0.00910
C403      0.02130   0.02920   0.01920  -0.00320   0.00060   0.00240
C404      0.02000   0.02490   0.01890  -0.00320  -0.00040   0.00500
C405      0.02300   0.02120   0.02250   0.00270  -0.00030   0.00050
C407      0.02420   0.02220   0.02780  -0.00250  -0.00470  -0.00120
C409      0.01760   0.02290   0.03040  -0.00280  -0.00330   0.00610
C410      0.02510   0.01860   0.03680  -0.00040  -0.00210   0.00210
C412      0.02720   0.02070   0.02950  -0.00660  -0.00370   0.00070
C414      0.01820   0.02190   0.03710  -0.00040  -0.00830   0.00340
C415      0.02550   0.03450   0.03200  -0.00470  -0.00060   0.00730
C417      0.02550   0.03670   0.02530  -0.00520  -0.00200   0.00140
C419      0.01650   0.02720   0.02680  -0.00110  -0.00310   0.00210
C420      0.02630   0.02870   0.02830  -0.00340  -0.00100   0.00160
C422      0.02970   0.03090   0.02880  -0.00290  -0.00750  -0.00170
C424      0.01830   0.02890   0.02400   0.00060  -0.00170  -0.00100
Co425     0.01852   0.02216   0.01731  -0.00076   0.00153  -0.00019
Co426     0.01827   0.02937   0.02337   0.00036  -0.00272  -0.00429
O427      0.02730   0.02230   0.02530  -0.00170   0.00570   0.00030
O428      0.03000   0.02760   0.02690  -0.01050   0.01000  -0.00640
O429      0.02690   0.03900   0.04020  -0.01190   0.01490  -0.01450
O430      0.02630   0.04180   0.02790  -0.00580  -0.00080  -0.00610
O431      0.02130   0.03750   0.03640  -0.00500   0.00680  -0.00960
O432      0.02540   0.02670   0.02560  -0.00180   0.00520   0.00280
O433      0.02670   0.02940   0.03090   0.00860   0.01000   0.00780
O434      0.02340   0.02310   0.04920   0.00430   0.01480   0.00770
O435      0.03030   0.03450   0.02460   0.01190  -0.00530  -0.00580
O436      0.02810   0.03490   0.02130   0.00640   0.00210  -0.00030
N437      0.02920   0.03300   0.02270  -0.00770   0.00720  -0.00370
N438      0.02470   0.03330   0.02290  -0.00700   0.00730  -0.00190
N439      0.01910   0.02400   0.02650  -0.00300   0.00240   0.00170
N440      0.02050   0.02820   0.02700  -0.00610  -0.00180   0.00210
N441      0.02190   0.02560   0.02760  -0.00290  -0.00270  -0.00160
N442      0.02530   0.03910   0.02380  -0.00570  -0.00460   0.00330
N443      0.02300   0.03260   0.02030  -0.00180  -0.00420   0.00240
N444      0.02000   0.02740   0.02210   0.00180  -0.00280   0.00150
N445      0.02050   0.02830   0.02310   0.00030  -0.00220   0.00240
N446      0.02250   0.03050   0.02270   0.00130  -0.00030   0.00290
C447      0.02240   0.02430   0.01770  -0.00240  -0.00080  -0.00010
C448      0.02210   0.02390   0.01790  -0.00510   0.00160  -0.00110
C449      0.02600   0.02310   0.02830  -0.00480   0.00300   0.00000
C451      0.02670   0.02560   0.03080  -0.00170   0.00260  -0.00560
C453      0.02200   0.03270   0.02330  -0.00600   0.00550  -0.00530
C454      0.02820   0.02610   0.03050  -0.00830   0.00810   0.00060
C456      0.02700   0.02310   0.02660  -0.00280   0.00420  -0.00200
C458      0.01950   0.02680   0.03220  -0.00130   0.00590  -0.00340
C459      0.02170   0.03790   0.02450  -0.00110   0.00220  -0.00590
C461      0.02100   0.03820   0.02400  -0.00010   0.00470   0.00000
C463      0.01670   0.02650   0.02710   0.00430   0.00110  -0.00160
C464      0.02290   0.02790   0.02520   0.00500  -0.00140  -0.00270
C466      0.02410   0.02710   0.02500   0.00310   0.00590   0.00190
C468      0.01910   0.03230   0.02940   0.00240  -0.00080   0.00000
C469      0.01820   0.02390   0.02260   0.00020   0.00510   0.00150
C471      0.05140   0.08300   0.02510  -0.03520   0.00900  -0.00780
C473      0.04700   0.07700   0.02450  -0.02970   0.00830  -0.00350
C475      0.02130   0.02940   0.02570  -0.00330   0.00280   0.00230
C476      0.02680   0.06400   0.02560  -0.00890   0.00610   0.00620
C478      0.02250   0.07800   0.03470  -0.01500   0.00380   0.01160
C480      0.02390   0.05620   0.03340  -0.01360  -0.00290   0.01020
C482      0.02220   0.02660   0.02490  -0.00210  -0.00030   0.00610
C483      0.01760   0.02470   0.02760  -0.00220   0.00080   0.00010
C485      0.03710   0.04240   0.03740  -0.02120  -0.00330   0.00150
C487      0.03790   0.03540   0.03280  -0.01590  -0.00300  -0.00410
C489      0.02300   0.03440   0.02130  -0.00280  -0.00550   0.00320
C491      0.04980   0.08100   0.02190  -0.02910  -0.00540   0.01100
C493      0.04620   0.07300   0.02020  -0.02610  -0.00930   0.00440
C495      0.01990   0.02410   0.02410   0.00240  -0.00260   0.00190
C496      0.02910   0.03570   0.02160  -0.00240  -0.00720   0.00270
C498      0.03140   0.03870   0.02900  -0.00770  -0.01200   0.00290
C500      0.02750   0.03020   0.02860  -0.00570  -0.00390   0.00010
C502      0.02180   0.02410   0.02350   0.00410  -0.00240   0.00080
C503      0.02190   0.03310   0.02360  -0.00160  -0.00220   0.00070
C505      0.02520   0.04950   0.03230  -0.00970  -0.00390   0.00860
C507      0.02720   0.04570   0.02790  -0.00890  -0.00250   0.00910
C509      0.02130   0.02920   0.01920   0.00320  -0.00060   0.00240
C510      0.02000   0.02490   0.01890   0.00320   0.00040   0.00500
C511      0.02300   0.02120   0.02250  -0.00270   0.00030   0.00050
C513      0.02420   0.02220   0.02780   0.00250   0.00470  -0.00120
C515      0.01760   0.02290   0.03040   0.00280   0.00330   0.00610
C516      0.02510   0.01860   0.03680   0.00040   0.00210   0.00210
C518      0.02720   0.02070   0.02950   0.00660   0.00370   0.00070
C520      0.01820   0.02190   0.03710   0.00040   0.00830   0.00340
C521      0.02550   0.03450   0.03200   0.00470   0.00060   0.00730
C523      0.02550   0.03670   0.02530   0.00520   0.00200   0.00140
C525      0.01650   0.02720   0.02680   0.00110   0.00310   0.00210
C526      0.02630   0.02870   0.02830   0.00340   0.00100   0.00160
C528      0.02970   0.03090   0.02880   0.00290   0.00750  -0.00170
C530      0.01830   0.02890   0.02400  -0.00060   0.00170  -0.00100
Co531     0.01852   0.02216   0.01731  -0.00076  -0.00153   0.00019
Co532     0.01827   0.02937   0.02337   0.00036   0.00272   0.00429
O533      0.02730   0.02230   0.02530  -0.00170  -0.00570  -0.00030
O534      0.03000   0.02760   0.02690  -0.01050  -0.01000   0.00640
O535      0.02690   0.03900   0.04020  -0.01190  -0.01490   0.01450
O536      0.02630   0.04180   0.02790  -0.00580   0.00080   0.00610
O537      0.02130   0.03750   0.03640  -0.00500  -0.00680   0.00960
O538      0.02540   0.02670   0.02560  -0.00180  -0.00520  -0.00280
O539      0.02670   0.02940   0.03090   0.00860  -0.01000  -0.00780
O540      0.02340   0.02310   0.04920   0.00430  -0.01480  -0.00770
O541      0.03030   0.03450   0.02460   0.01190   0.00530   0.00580
O542      0.02810   0.03490   0.02130   0.00640  -0.00210   0.00030
N543      0.02920   0.03300   0.02270  -0.00770  -0.00720   0.00370
N544      0.02470   0.03330   0.02290  -0.00700  -0.00730   0.00190
N545      0.01910   0.02400   0.02650  -0.00300  -0.00240  -0.00170
N546      0.02050   0.02820   0.02700  -0.00610   0.00180  -0.00210
N547      0.02190   0.02560   0.02760  -0.00290   0.00270   0.00160
N548      0.02530   0.03910   0.02380  -0.00570   0.00460  -0.00330
N549      0.02300   0.03260   0.02030  -0.00180   0.00420  -0.00240
N550      0.02000   0.02740   0.02210   0.00180   0.00280  -0.00150
N551      0.02050   0.02830   0.02310   0.00030   0.00220  -0.00240
N552      0.02250   0.03050   0.02270   0.00130   0.00030  -0.00290
C553      0.02240   0.02430   0.01770  -0.00240   0.00080   0.00010
C554      0.02210   0.02390   0.01790  -0.00510  -0.00160   0.00110
C555      0.02600   0.02310   0.02830  -0.00480  -0.00300   0.00000
C557      0.02670   0.02560   0.03080  -0.00170  -0.00260   0.00560
C559      0.02200   0.03270   0.02330  -0.00600  -0.00550   0.00530
C560      0.02820   0.02610   0.03050  -0.00830  -0.00810  -0.00060
C562      0.02700   0.02310   0.02660  -0.00280  -0.00420   0.00200
C564      0.01950   0.02680   0.03220  -0.00130  -0.00590   0.00340
C565      0.02170   0.03790   0.02450  -0.00110  -0.00220   0.00590
C567      0.02100   0.03820   0.02400  -0.00010  -0.00470   0.00000
C569      0.01670   0.02650   0.02710   0.00430  -0.00110   0.00160
C570      0.02290   0.02790   0.02520   0.00500   0.00140   0.00270
C572      0.02410   0.02710   0.02500   0.00310  -0.00590  -0.00190
C574      0.01910   0.03230   0.02940   0.00240   0.00080   0.00000
C575      0.01820   0.02390   0.02260   0.00020  -0.00510  -0.00150
C577      0.05140   0.08300   0.02510  -0.03520  -0.00900   0.00780
C579      0.04700   0.07700   0.02450  -0.02970  -0.00830   0.00350
C581      0.02130   0.02940   0.02570  -0.00330  -0.00280  -0.00230
C582      0.02680   0.06400   0.02560  -0.00890  -0.00610  -0.00620
C584      0.02250   0.07800   0.03470  -0.01500  -0.00380  -0.01160
C586      0.02390   0.05620   0.03340  -0.01360   0.00290  -0.01020
C588      0.02220   0.02660   0.02490  -0.00210   0.00030  -0.00610
C589      0.01760   0.02470   0.02760  -0.00220  -0.00080  -0.00010
C591      0.03710   0.04240   0.03740  -0.02120   0.00330  -0.00150
C593      0.03790   0.03540   0.03280  -0.01590   0.00300   0.00410
C595      0.02300   0.03440   0.02130  -0.00280   0.00550  -0.00320
C597      0.04980   0.08100   0.02190  -0.02910   0.00540  -0.01100
C599      0.04620   0.07300   0.02020  -0.02610   0.00930  -0.00440
C601      0.01990   0.02410   0.02410   0.00240   0.00260  -0.00190
C602      0.02910   0.03570   0.02160  -0.00240   0.00720  -0.00270
C604      0.03140   0.03870   0.02900  -0.00770   0.01200  -0.00290
C606      0.02750   0.03020   0.02860  -0.00570   0.00390  -0.00010
C608      0.02180   0.02410   0.02350   0.00410   0.00240  -0.00080
C609      0.02190   0.03310   0.02360  -0.00160   0.00220  -0.00070
C611      0.02520   0.04950   0.03230  -0.00970   0.00390  -0.00860
C613      0.02720   0.04570   0.02790  -0.00890   0.00250  -0.00910
C615      0.02130   0.02920   0.01920   0.00320   0.00060  -0.00240
C616      0.02000   0.02490   0.01890   0.00320  -0.00040  -0.00500
C617      0.02300   0.02120   0.02250  -0.00270  -0.00030  -0.00050
C619      0.02420   0.02220   0.02780   0.00250  -0.00470   0.00120
C621      0.01760   0.02290   0.03040   0.00280  -0.00330  -0.00610
C622      0.02510   0.01860   0.03680   0.00040  -0.00210  -0.00210
C624      0.02720   0.02070   0.02950   0.00660  -0.00370  -0.00070
C626      0.01820   0.02190   0.03710   0.00040  -0.00830  -0.00340
C627      0.02550   0.03450   0.03200   0.00470  -0.00060  -0.00730
C629      0.02550   0.03670   0.02530   0.00520  -0.00200  -0.00140
C631      0.01650   0.02720   0.02680   0.00110  -0.00310  -0.00210
C632      0.02630   0.02870   0.02830   0.00340  -0.00100  -0.00160
C634      0.02970   0.03090   0.02880   0.00290  -0.00750   0.00170
C636      0.01830   0.02890   0.02400  -0.00060  -0.00170   0.00100
Co637     0.01852   0.02216   0.01731   0.00076   0.00153   0.00019
Co638     0.01827   0.02937   0.02337  -0.00036  -0.00272   0.00429
O639      0.02730   0.02230   0.02530   0.00170   0.00570  -0.00030
O640      0.03000   0.02760   0.02690   0.01050   0.01000   0.00640
O641      0.02690   0.03900   0.04020   0.01190   0.01490   0.01450
O642      0.02630   0.04180   0.02790   0.00580  -0.00080   0.00610
O643      0.02130   0.03750   0.03640   0.00500   0.00680   0.00960
O644      0.02540   0.02670   0.02560   0.00180   0.00520  -0.00280
O645      0.02670   0.02940   0.03090  -0.00860   0.01000  -0.00780
O646      0.02340   0.02310   0.04920  -0.00430   0.01480  -0.00770
O647      0.03030   0.03450   0.02460  -0.01190  -0.00530   0.00580
O648      0.02810   0.03490   0.02130  -0.00640   0.00210   0.00030
N649      0.02920   0.03300   0.02270   0.00770   0.00720   0.00370
N650      0.02470   0.03330   0.02290   0.00700   0.00730   0.00190
N651      0.01910   0.02400   0.02650   0.00300   0.00240  -0.00170
N652      0.02050   0.02820   0.02700   0.00610  -0.00180  -0.00210
N653      0.02190   0.02560   0.02760   0.00290  -0.00270   0.00160
N654      0.02530   0.03910   0.02380   0.00570  -0.00460  -0.00330
N655      0.02300   0.03260   0.02030   0.00180  -0.00420  -0.00240
N656      0.02000   0.02740   0.02210  -0.00180  -0.00280  -0.00150
N657      0.02050   0.02830   0.02310  -0.00030  -0.00220  -0.00240
N658      0.02250   0.03050   0.02270  -0.00130  -0.00030  -0.00290
C659      0.02240   0.02430   0.01770   0.00240  -0.00080   0.00010
C660      0.02210   0.02390   0.01790   0.00510   0.00160   0.00110
C661      0.02600   0.02310   0.02830   0.00480   0.00300   0.00000
C663      0.02670   0.02560   0.03080   0.00170   0.00260   0.00560
C665      0.02200   0.03270   0.02330   0.00600   0.00550   0.00530
C666      0.02820   0.02610   0.03050   0.00830   0.00810  -0.00060
C668      0.02700   0.02310   0.02660   0.00280   0.00420   0.00200
C670      0.01950   0.02680   0.03220   0.00130   0.00590   0.00340
C671      0.02170   0.03790   0.02450   0.00110   0.00220   0.00590
C673      0.02100   0.03820   0.02400   0.00010   0.00470   0.00000
C675      0.01670   0.02650   0.02710  -0.00430   0.00110   0.00160
C676      0.02290   0.02790   0.02520  -0.00500  -0.00140   0.00270
C678      0.02410   0.02710   0.02500  -0.00310   0.00590  -0.00190
C680      0.01910   0.03230   0.02940  -0.00240  -0.00080   0.00000
C681      0.01820   0.02390   0.02260  -0.00020   0.00510  -0.00150
C683      0.05140   0.08300   0.02510   0.03520   0.00900   0.00780
C685      0.04700   0.07700   0.02450   0.02970   0.00830   0.00350
C687      0.02130   0.02940   0.02570   0.00330   0.00280  -0.00230
C688      0.02680   0.06400   0.02560   0.00890   0.00610  -0.00620
C690      0.02250   0.07800   0.03470   0.01500   0.00380  -0.01160
C692      0.02390   0.05620   0.03340   0.01360  -0.00290  -0.01020
C694      0.02220   0.02660   0.02490   0.00210  -0.00030  -0.00610
C695      0.01760   0.02470   0.02760   0.00220   0.00080  -0.00010
C697      0.03710   0.04240   0.03740   0.02120  -0.00330  -0.00150
C699      0.03790   0.03540   0.03280   0.01590  -0.00300   0.00410
C701      0.02300   0.03440   0.02130   0.00280  -0.00550  -0.00320
C703      0.04980   0.08100   0.02190   0.02910  -0.00540  -0.01100
C705      0.04620   0.07300   0.02020   0.02610  -0.00930  -0.00440
C707      0.01990   0.02410   0.02410  -0.00240  -0.00260  -0.00190
C708      0.02910   0.03570   0.02160   0.00240  -0.00720  -0.00270
C710      0.03140   0.03870   0.02900   0.00770  -0.01200  -0.00290
C712      0.02750   0.03020   0.02860   0.00570  -0.00390  -0.00010
C714      0.02180   0.02410   0.02350  -0.00410  -0.00240  -0.00080
C715      0.02190   0.03310   0.02360   0.00160  -0.00220  -0.00070
C717      0.02520   0.04950   0.03230   0.00970  -0.00390  -0.00860
C719      0.02720   0.04570   0.02790   0.00890  -0.00250  -0.00910
C721      0.02130   0.02920   0.01920  -0.00320  -0.00060  -0.00240
C722      0.02000   0.02490   0.01890  -0.00320   0.00040  -0.00500
C723      0.02300   0.02120   0.02250   0.00270   0.00030  -0.00050
C725      0.02420   0.02220   0.02780  -0.00250   0.00470   0.00120
C727      0.01760   0.02290   0.03040  -0.00280   0.00330  -0.00610
C728      0.02510   0.01860   0.03680  -0.00040   0.00210  -0.00210
C730      0.02720   0.02070   0.02950  -0.00660   0.00370  -0.00070
C732      0.01820   0.02190   0.03710  -0.00040   0.00830  -0.00340
C733      0.02550   0.03450   0.03200  -0.00470   0.00060  -0.00730
C735      0.02550   0.03670   0.02530  -0.00520   0.00200  -0.00140
C737      0.01650   0.02720   0.02680  -0.00110   0.00310  -0.00210
C738      0.02630   0.02870   0.02830  -0.00340   0.00100  -0.00160
C740      0.02970   0.03090   0.02880  -0.00290   0.00750   0.00170
C742      0.01830   0.02890   0.02400   0.00060   0.00170   0.00100
Co743     0.01852   0.02216   0.01731   0.00076  -0.00153  -0.00019
Co744     0.01827   0.02937   0.02337  -0.00036   0.00272  -0.00429
O745      0.02730   0.02230   0.02530   0.00170  -0.00570   0.00030
O746      0.03000   0.02760   0.02690   0.01050  -0.01000  -0.00640
O747      0.02690   0.03900   0.04020   0.01190  -0.01490  -0.01450
O748      0.02630   0.04180   0.02790   0.00580   0.00080  -0.00610
O749      0.02130   0.03750   0.03640   0.00500  -0.00680  -0.00960
O750      0.02540   0.02670   0.02560   0.00180  -0.00520   0.00280
O751      0.02670   0.02940   0.03090  -0.00860  -0.01000   0.00780
O752      0.02340   0.02310   0.04920  -0.00430  -0.01480   0.00770
O753      0.03030   0.03450   0.02460  -0.01190   0.00530  -0.00580
O754      0.02810   0.03490   0.02130  -0.00640  -0.00210  -0.00030
N755      0.02920   0.03300   0.02270   0.00770  -0.00720  -0.00370
N756      0.02470   0.03330   0.02290   0.00700  -0.00730  -0.00190
N757      0.01910   0.02400   0.02650   0.00300  -0.00240   0.00170
N758      0.02050   0.02820   0.02700   0.00610   0.00180   0.00210
N759      0.02190   0.02560   0.02760   0.00290   0.00270  -0.00160
N760      0.02530   0.03910   0.02380   0.00570   0.00460   0.00330
N761      0.02300   0.03260   0.02030   0.00180   0.00420   0.00240
N762      0.02000   0.02740   0.02210  -0.00180   0.00280   0.00150
N763      0.02050   0.02830   0.02310  -0.00030   0.00220   0.00240
N764      0.02250   0.03050   0.02270  -0.00130   0.00030   0.00290
C765      0.02240   0.02430   0.01770   0.00240   0.00080  -0.00010
C766      0.02210   0.02390   0.01790   0.00510  -0.00160  -0.00110
C767      0.02600   0.02310   0.02830   0.00480  -0.00300   0.00000
C769      0.02670   0.02560   0.03080   0.00170  -0.00260  -0.00560
C771      0.02200   0.03270   0.02330   0.00600  -0.00550  -0.00530
C772      0.02820   0.02610   0.03050   0.00830  -0.00810   0.00060
C774      0.02700   0.02310   0.02660   0.00280  -0.00420  -0.00200
C776      0.01950   0.02680   0.03220   0.00130  -0.00590  -0.00340
C777      0.02170   0.03790   0.02450   0.00110  -0.00220  -0.00590
C779      0.02100   0.03820   0.02400   0.00010  -0.00470   0.00000
C781      0.01670   0.02650   0.02710  -0.00430  -0.00110  -0.00160
C782      0.02290   0.02790   0.02520  -0.00500   0.00140  -0.00270
C784      0.02410   0.02710   0.02500  -0.00310  -0.00590   0.00190
C786      0.01910   0.03230   0.02940  -0.00240   0.00080   0.00000
C787      0.01820   0.02390   0.02260  -0.00020  -0.00510   0.00150
C789      0.05140   0.08300   0.02510   0.03520  -0.00900  -0.00780
C791      0.04700   0.07700   0.02450   0.02970  -0.00830  -0.00350
C793      0.02130   0.02940   0.02570   0.00330  -0.00280   0.00230
C794      0.02680   0.06400   0.02560   0.00890  -0.00610   0.00620
C796      0.02250   0.07800   0.03470   0.01500  -0.00380   0.01160
C798      0.02390   0.05620   0.03340   0.01360   0.00290   0.01020
C800      0.02220   0.02660   0.02490   0.00210   0.00030   0.00610
C801      0.01760   0.02470   0.02760   0.00220  -0.00080   0.00010
C803      0.03710   0.04240   0.03740   0.02120   0.00330   0.00150
C805      0.03790   0.03540   0.03280   0.01590   0.00300  -0.00410
C807      0.02300   0.03440   0.02130   0.00280   0.00550   0.00320
C809      0.04980   0.08100   0.02190   0.02910   0.00540   0.01100
C811      0.04620   0.07300   0.02020   0.02610   0.00930   0.00440
C813      0.01990   0.02410   0.02410  -0.00240   0.00260   0.00190
C814      0.02910   0.03570   0.02160   0.00240   0.00720   0.00270
C816      0.03140   0.03870   0.02900   0.00770   0.01200   0.00290
C818      0.02750   0.03020   0.02860   0.00570   0.00390   0.00010
C820      0.02180   0.02410   0.02350  -0.00410   0.00240   0.00080
C821      0.02190   0.03310   0.02360   0.00160   0.00220   0.00070
C823      0.02520   0.04950   0.03230   0.00970   0.00390   0.00860
C825      0.02720   0.04570   0.02790   0.00890   0.00250   0.00910
C827      0.02130   0.02920   0.01920  -0.00320   0.00060   0.00240
C828      0.02000   0.02490   0.01890  -0.00320  -0.00040   0.00500
C829      0.02300   0.02120   0.02250   0.00270  -0.00030   0.00050
C831      0.02420   0.02220   0.02780  -0.00250  -0.00470  -0.00120
C833      0.01760   0.02290   0.03040  -0.00280  -0.00330   0.00610
C834      0.02510   0.01860   0.03680  -0.00040  -0.00210   0.00210
C836      0.02720   0.02070   0.02950  -0.00660  -0.00370   0.00070
C838      0.01820   0.02190   0.03710  -0.00040  -0.00830   0.00340
C839      0.02550   0.03450   0.03200  -0.00470  -0.00060   0.00730
C841      0.02550   0.03670   0.02530  -0.00520  -0.00200   0.00140
C843      0.01650   0.02720   0.02680  -0.00110  -0.00310   0.00210
C844      0.02630   0.02870   0.02830  -0.00340  -0.00100   0.00160
C846      0.02970   0.03090   0.02880  -0.00290  -0.00750  -0.00170
C848      0.01830   0.02890   0.02400   0.00060  -0.00170  -0.00100
loop_
_geom_bond_atom_site_label_1
_geom_bond_atom_site_label_2
_geom_bond_distance
_geom_bond_site_symmetry_2
_ccdc_geom_bond_type
Co1    O3      2.231   1_545 S
Co1    O4      2.067   .     S
Co1    O11     2.202   1_545 S
Co1    O12     2.125   1_545 S
Co1    N13     2.099   .     S
Co1    N22     2.078   .     S
Co2    O6      2.237   .     S
Co2    O7      2.069   .     S
Co2    O538    2.183   .     S
Co2    O539    2.122   .     S
Co2    N441    2.090   .     S
Co2    N230    2.084   .     S
O3     Co1     2.231   1_565 S
O3     C23     1.251   1_565 S
O4     C23     1.274   .     S
O5     C29     1.385   .     S
O5     C34     1.383   1_545 S
O6     C44     1.250   .     S
O7     C44     1.280   .     S
O8     C85     1.264   .     S
O8     Co532   2.183   1_655 S
O9     C85     1.266   .     S
O9     Co532   2.122   1_655 S
O10    C91     1.388   .     S
O10    C96     1.391   .     S
O11    Co1     2.202   1_565 S
O11    C106    1.250   .     S
O12    Co1     2.125   1_565 S
O12    C106    1.270   .     S
N13    C45     1.313   .     S
N13    C47     1.377   .     S
N14    C45     1.356   .     S
N14    C49     1.382   .     S
N14    C51     1.415   .     S
N15    C51     1.331   .     S
N15    C58     1.321   .     S
N16    C58     1.421   .     S
N16    C59     1.356   .     S
N16    C61     1.381   .     S
N17    C59     1.309   .     S
N17    C63     1.383   .     S
N17    Co426   2.090   .     S
N18    C65     1.309   .     S
N18    C67     1.379   1_554 S
N18    Co214   2.084   .     S
N19    C65     1.355   .     S
N19    C69     1.372   1_554 S
N19    C71     1.419   .     S
N20    C71     1.328   .     S
N20    C78     1.325   .     S
N21    C78     1.420   .     S
N21    C79     1.350   .     S
N21    C81     1.378   .     S
N22    C83     1.378   .     S
N22    C79     1.307   .     S
C23    O3      1.251   1_545 S
C23    C24     1.491   .     S
C24    C25     1.387   .     S
C24    C32     1.389   1_545 S
C25    H26     0.950   .     S
C25    C27     1.384   .     S
C27    H28     0.949   1_455 S
C27    C29     1.380   1_455 S
H28    C27     0.949   1_655 S
C29    C27     1.380   1_655 S
C29    C30     1.380   1_645 S
C30    C29     1.380   1_465 S
C30    H31     0.950   .     S
C30    C32     1.386   .     S
C32    C24     1.389   1_565 S
C32    H33     0.949   .     S
C34    O5      1.383   1_565 S
C34    C35     1.381   .     S
C34    C42     1.387   .     S
C35    H36     0.950   .     S
C35    C37     1.380   .     S
C37    H38     0.950   .     S
C37    C39     1.392   .     S
C39    C40     1.390   .     S
C39    C44     1.490   .     S
C40    H41     0.951   .     S
C40    C42     1.383   .     S
C42    H43     0.949   .     S
C45    H46     0.950   .     S
C47    H48     0.951   .     S
C47    C49     1.347   .     S
C49    H50     0.951   .     S
C51    C52     1.387   .     S
C52    H53     0.949   .     S
C52    C54     1.376   .     S
C54    H55     0.951   .     S
C54    C56     1.379   .     S
C56    H57     0.950   .     S
C56    C58     1.381   .     S
C59    H60     0.949   .     S
C61    H62     0.950   .     S
C61    C63     1.344   .     S
C63    H64     0.950   .     S
C65    H66     0.950   .     S
C67    N18     1.379   1_556 S
C67    H68     0.950   .     S
C67    C69     1.345   .     S
C69    N19     1.372   1_556 S
C69    H70     0.951   .     S
C71    C72     1.378   1_554 S
C72    C71     1.378   1_556 S
C72    H73     0.951   .     S
C72    C74     1.378   1_556 S
C74    C72     1.378   1_554 S
C74    H75     0.950   1_554 S
C74    C76     1.382   .     S
H75    C74     0.950   1_556 S
C76    H77     0.949   .     S
C76    C78     1.377   .     S
C79    H80     0.951   .     S
C81    H82     0.950   .     S
C81    C83     1.349   .     S
C83    H84     0.950   1_545 S
H84    C83     0.950   1_565 S
C85    C86     1.489   .     S
C86    C87     1.389   .     S
C86    C94     1.392   .     S
C87    H88     0.950   .     S
C87    C89     1.385   .     S
C89    H90     0.950   .     S
C89    C91     1.387   .     S
C91    C92     1.380   .     S
C92    H93     0.950   .     S
C92    C94     1.379   .     S
C94    H95     0.950   .     S
C96    C97     1.379   .     S
C96    C104    1.380   .     S
C97    H98     0.950   .     S
C97    C99     1.382   .     S
C99    H100    0.950   .     S
C99    C101    1.391   .     S
C101   C102    1.382   .     S
C101   C106    1.488   .     S
C102   H103    0.951   .     S
C102   C104    1.385   .     S
C104   H105    0.949   .     S
Co107  O109    2.231   1_565 S
Co107  O110    2.067   .     S
Co107  O117    2.202   1_565 S
Co107  O118    2.125   1_565 S
Co107  N119    2.099   .     S
Co107  N128    2.078   .     S
Co108  O112    2.237   .     S
Co108  O113    2.069   .     S
Co108  O432    2.183   1_655 S
Co108  O433    2.122   1_655 S
Co108  N547    2.090   1_656 S
Co108  N336    2.084   .     S
O109   Co107   2.231   1_545 S
O109   C129    1.251   1_545 S
O110   C129    1.274   .     S
O111   C135    1.385   .     S
O111   C140    1.383   1_565 S
O112   C150    1.250   .     S
O113   C150    1.280   .     S
O114   C191    1.264   .     S
O114   Co426   2.183   .     S
O115   C191    1.266   .     S
O115   Co426   2.122   .     S
O116   C197    1.388   .     S
O116   C202    1.391   .     S
O117   Co107   2.202   1_545 S
O117   C212    1.250   .     S
O118   Co107   2.125   1_545 S
O118   C212    1.270   .     S
N119   C151    1.313   .     S
N119   C153    1.377   .     S
N120   C151    1.356   1_655 S
N120   C155    1.382   1_655 S
N120   C157    1.415   .     S
N121   C157    1.331   .     S
N121   C164    1.321   .     S
N122   C164    1.421   .     S
N122   C165    1.356   .     S
N122   C167    1.381   .     S
N123   C165    1.309   .     S
N123   C169    1.383   .     S
N123   Co532   2.090   1_656 S
N124   C171    1.309   .     S
N124   C173    1.379   .     S
N124   Co320   2.084   .     S
N125   C171    1.355   .     S
N125   C175    1.372   .     S
N125   C177    1.419   .     S
N126   C177    1.328   .     S
N126   C184    1.325   .     S
N127   C184    1.420   .     S
N127   C185    1.350   .     S
N127   C187    1.378   .     S
N128   C189    1.378   .     S
N128   C185    1.307   .     S
C129   O109    1.251   1_565 S
C129   C130    1.491   .     S
C130   C131    1.387   .     S
C130   C138    1.389   1_565 S
C131   H132    0.950   .     S
C131   C133    1.384   .     S
C133   H134    0.949   .     S
C133   C135    1.380   .     S
C135   C136    1.380   1_565 S
C136   C135    1.380   1_545 S
C136   H137    0.950   .     S
C136   C138    1.386   .     S
C138   C130    1.389   1_545 S
C138   H139    0.949   .     S
C140   O111    1.383   1_545 S
C140   C141    1.381   .     S
C140   C148    1.387   .     S
C141   H142    0.950   1_556 S
C141   C143    1.380   .     S
H142   C141    0.950   1_554 S
C143   H144    0.950   1_556 S
C143   C145    1.392   .     S
H144   C143    0.950   1_554 S
C145   C146    1.390   .     S
C145   C150    1.490   .     S
C146   H147    0.951   .     S
C146   C148    1.383   .     S
C148   H149    0.949   .     S
C151   N120    1.356   1_455 S
C151   H152    0.950   .     S
C153   H154    0.951   .     S
C153   C155    1.347   .     S
C155   N120    1.382   1_455 S
C155   H156    0.951   1_455 S
H156   C155    0.951   1_655 S
C157   C158    1.387   .     S
C158   H159    0.949   .     S
C158   C160    1.376   .     S
C160   H161    0.951   .     S
C160   C162    1.379   .     S
C162   H163    0.950   .     S
C162   C164    1.381   .     S
C165   H166    0.949   .     S
C167   H168    0.950   .     S
C167   C169    1.344   .     S
C169   H170    0.950   1_556 S
H170   C169    0.950   1_554 S
C171   H172    0.950   .     S
C173   H174    0.950   .     S
C173   C175    1.345   .     S
C175   H176    0.951   .     S
C177   C178    1.378   .     S
C178   H179    0.951   .     S
C178   C180    1.378   .     S
C180   H181    0.950   .     S
C180   C182    1.382   .     S
C182   H183    0.949   .     S
C182   C184    1.377   .     S
C185   H186    0.951   .     S
C187   H188    0.950   .     S
C187   C189    1.349   .     S
C189   H190    0.950   1_565 S
H190   C189    0.950   1_545 S
C191   C192    1.489   .     S
C192   C193    1.389   .     S
C192   C200    1.392   .     S
C193   H194    0.950   .     S
C193   C195    1.385   .     S
C195   H196    0.950   .     S
C195   C197    1.387   .     S
C197   C198    1.380   .     S
C198   H199    0.950   .     S
C198   C200    1.379   .     S
C200   H201    0.950   .     S
C202   C203    1.379   .     S
C202   C210    1.380   .     S
C203   H204    0.950   .     S
C203   C205    1.382   .     S
C205   H206    0.950   .     S
C205   C207    1.391   1_655 S
C207   C205    1.391   1_455 S
C207   C208    1.382   .     S
C207   C212    1.488   .     S
C208   H209    0.951   .     S
C208   C210    1.385   1_455 S
C210   H211    0.949   .     S
C210   C208    1.385   1_655 S
Co213  O215    2.231   .     S
Co213  O216    2.067   .     S
Co213  O223    2.202   .     S
Co213  O224    2.125   .     S
Co213  N225    2.099   .     S
Co213  N234    2.078   .     S
Co214  O218    2.237   .     S
Co214  O219    2.069   .     S
Co214  O750    2.183   .     S
Co214  O751    2.122   .     S
Co214  N653    2.090   1_554 S
O215   C235    1.251   .     S
O216   C235    1.274   .     S
O217   C241    1.385   .     S
O217   C246    1.383   .     S
O218   C256    1.250   .     S
O219   C256    1.280   .     S
O220   C297    1.264   .     S
O220   Co744   2.183   1_455 S
O221   C297    1.266   .     S
O221   Co744   2.122   1_455 S
O222   C303    1.388   .     S
O222   C308    1.391   .     S
O223   C318    1.250   .     S
O224   C318    1.270   .     S
N225   C257    1.313   .     S
N225   C259    1.377   .     S
N226   C257    1.356   .     S
N226   C261    1.382   .     S
N226   C263    1.415   .     S
N227   C263    1.331   .     S
N227   C270    1.321   .     S
N228   C270    1.421   .     S
N228   C271    1.356   .     S
N228   C273    1.381   .     S
N229   C271    1.309   .     S
N229   C275    1.383   .     S
N229   Co638   2.090   1_554 S
N230   C277    1.309   .     S
N230   C279    1.379   .     S
N231   C277    1.355   .     S
N231   C281    1.372   .     S
N231   C283    1.419   .     S
N232   C283    1.328   .     S
N232   C290    1.325   .     S
N233   C290    1.420   .     S
N233   C291    1.350   .     S
N233   C293    1.378   .     S
N234   C295    1.378   .     S
N234   C291    1.307   .     S
C235   C236    1.491   .     S
C236   C237    1.387   .     S
C236   C244    1.389   .     S
C237   H238    0.950   .     S
C237   C239    1.384   .     S
C239   H240    0.949   1_655 S
C239   C241    1.380   1_655 S
H240   C239    0.949   1_455 S
C241   C239    1.380   1_455 S
C241   C242    1.380   1_455 S
C242   C241    1.380   1_655 S
C242   H243    0.950   .     S
C242   C244    1.386   .     S
C244   H245    0.949   .     S
C246   C247    1.381   .     S
C246   C254    1.387   .     S
C247   H248    0.950   1_554 S
C247   C249    1.380   .     S
H248   C247    0.950   1_556 S
C249   H250    0.950   1_554 S
C249   C251    1.392   .     S
H250   C249    0.950   1_556 S
C251   C252    1.390   .     S
C251   C256    1.490   .     S
C252   H253    0.951   .     S
C252   C254    1.383   .     S
C254   H255    0.949   .     S
C257   H258    0.950   .     S
C259   H260    0.951   .     S
C259   C261    1.347   .     S
C261   H262    0.951   .     S
C263   C264    1.387   .     S
C264   H265    0.949   .     S
C264   C266    1.376   .     S
C266   H267    0.951   .     S
C266   C268    1.379   .     S
C268   H269    0.950   .     S
C268   C270    1.381   .     S
C271   H272    0.949   .     S
C273   H274    0.950   .     S
C273   C275    1.344   .     S
C275   H276    0.950   1_554 S
H276   C275    0.950   1_556 S
C277   H278    0.950   .     S
C279   H280    0.950   .     S
C279   C281    1.345   .     S
C281   H282    0.951   .     S
C283   C284    1.378   .     S
C284   H285    0.951   .     S
C284   C286    1.378   .     S
C286   H287    0.950   .     S
C286   C288    1.382   .     S
C288   H289    0.949   .     S
C288   C290    1.377   .     S
C291   H292    0.951   .     S
C293   H294    0.950   .     S
C293   C295    1.349   .     S
C295   H296    0.950   .     S
C297   C298    1.489   .     S
C298   C299    1.389   .     S
C298   C306    1.392   .     S
C299   H300    0.950   .     S
C299   C301    1.385   .     S
C301   H302    0.950   .     S
C301   C303    1.387   .     S
C303   C304    1.380   .     S
C304   H305    0.950   .     S
C304   C306    1.379   .     S
C306   H307    0.950   .     S
C308   C309    1.379   .     S
C308   C316    1.380   .     S
C309   H310    0.950   .     S
C309   C311    1.382   .     S
C311   H312    0.950   .     S
C311   C313    1.391   .     S
C313   C314    1.382   .     S
C313   C318    1.488   .     S
C314   H315    0.951   .     S
C314   C316    1.385   .     S
C316   H317    0.949   .     S
Co319  O321    2.231   .     S
Co319  O322    2.067   .     S
Co319  O329    2.202   .     S
Co319  O330    2.125   .     S
Co319  N331    2.099   .     S
Co319  N340    2.078   .     S
Co320  O324    2.237   .     S
Co320  O325    2.069   .     S
Co320  O644    2.183   1_455 S
Co320  O645    2.122   1_455 S
Co320  N759    2.090   1_455 S
O321   C341    1.251   .     S
O322   C341    1.274   .     S
O323   C347    1.385   .     S
O323   C352    1.383   .     S
O324   C362    1.250   .     S
O325   C362    1.280   .     S
O326   C403    1.264   .     S
O326   Co638   2.183   .     S
O327   C403    1.266   .     S
O327   Co638   2.122   .     S
O328   C409    1.388   .     S
O328   C414    1.391   .     S
O329   C424    1.250   .     S
O330   C424    1.270   .     S
N331   C363    1.313   .     S
N331   C365    1.377   .     S
N332   C363    1.356   1_455 S
N332   C367    1.382   1_455 S
N332   C369    1.415   .     S
N333   C369    1.331   .     S
N333   C376    1.321   .     S
N334   C376    1.421   .     S
N334   C377    1.356   .     S
N334   C379    1.381   .     S
N335   C377    1.309   .     S
N335   C381    1.383   .     S
N335   Co744   2.090   1_455 S
N336   C383    1.309   .     S
N336   C385    1.379   1_556 S
N337   C383    1.355   .     S
N337   C387    1.372   1_556 S
N337   C389    1.419   .     S
N338   C389    1.328   .     S
N338   C396    1.325   .     S
N339   C396    1.420   .     S
N339   C397    1.350   .     S
N339   C399    1.378   .     S
N340   C401    1.378   .     S
N340   C397    1.307   .     S
C341   C342    1.491   .     S
C342   C343    1.387   .     S
C342   C350    1.389   .     S
C343   H344    0.950   .     S
C343   C345    1.384   .     S
C345   H346    0.949   .     S
C345   C347    1.380   .     S
C347   C348    1.380   .     S
C348   H349    0.950   .     S
C348   C350    1.386   .     S
C350   H351    0.949   .     S
C352   C353    1.381   .     S
C352   C360    1.387   .     S
C353   H354    0.950   .     S
C353   C355    1.380   .     S
C355   H356    0.950   .     S
C355   C357    1.392   .     S
C357   C358    1.390   .     S
C357   C362    1.490   .     S
C358   H359    0.951   .     S
C358   C360    1.383   .     S
C360   H361    0.949   .     S
C363   N332    1.356   1_655 S
C363   H364    0.950   .     S
C365   H366    0.951   .     S
C365   C367    1.347   .     S
C367   N332    1.382   1_655 S
C367   H368    0.951   1_655 S
H368   C367    0.951   1_455 S
C369   C370    1.387   .     S
C370   H371    0.949   .     S
C370   C372    1.376   .     S
C372   H373    0.951   .     S
C372   C374    1.379   .     S
C374   H375    0.950   .     S
C374   C376    1.381   .     S
C377   H378    0.949   .     S
C379   H380    0.950   .     S
C379   C381    1.344   .     S
C381   H382    0.950   .     S
C383   H384    0.950   .     S
C385   N336    1.379   1_554 S
C385   H386    0.950   .     S
C385   C387    1.345   .     S
C387   N337    1.372   1_554 S
C387   H388    0.951   .     S
C389   C390    1.378   1_556 S
C390   C389    1.378   1_554 S
C390   H391    0.951   .     S
C390   C392    1.378   1_554 S
C392   C390    1.378   1_556 S
C392   H393    0.950   1_556 S
C392   C394    1.382   .     S
H393   C392    0.950   1_554 S
C394   H395    0.949   .     S
C394   C396    1.377   .     S
C397   H398    0.951   .     S
C399   H400    0.950   .     S
C399   C401    1.349   .     S
C401   H402    0.950   .     S
C403   C404    1.489   .     S
C404   C405    1.389   .     S
C404   C412    1.392   .     S
C405   H406    0.950   .     S
C405   C407    1.385   .     S
C407   H408    0.950   .     S
C407   C409    1.387   .     S
C409   C410    1.380   .     S
C410   H411    0.950   .     S
C410   C412    1.379   .     S
C412   H413    0.950   .     S
C414   C415    1.379   .     S
C414   C422    1.380   .     S
C415   H416    0.950   .     S
C415   C417    1.382   .     S
C417   H418    0.950   .     S
C417   C419    1.391   1_455 S
C419   C417    1.391   1_655 S
C419   C420    1.382   .     S
C419   C424    1.488   .     S
C420   H421    0.951   .     S
C420   C422    1.385   1_655 S
C422   H423    0.949   .     S
C422   C420    1.385   1_455 S
Co425  O427    2.231   1_565 S
Co425  O428    2.067   .     S
Co425  O435    2.202   1_565 S
Co425  O436    2.125   1_565 S
Co425  N437    2.099   .     S
Co425  N446    2.078   .     S
Co426  O430    2.237   .     S
Co426  O431    2.069   .     S
Co426  N654    2.084   .     S
O427   Co425   2.231   1_545 S
O427   C447    1.251   1_545 S
O428   C447    1.274   .     S
O429   C453    1.385   .     S
O429   C458    1.383   1_565 S
O430   C468    1.250   .     S
O431   C468    1.280   .     S
O432   C509    1.264   .     S
O432   Co108   2.183   1_455 S
O433   C509    1.266   .     S
O433   Co108   2.122   1_455 S
O434   C515    1.388   .     S
O434   C520    1.391   .     S
O435   Co425   2.202   1_545 S
O435   C530    1.250   .     S
O436   Co425   2.125   1_545 S
O436   C530    1.270   .     S
N437   C469    1.313   .     S
N437   C471    1.377   .     S
N438   C469    1.356   .     S
N438   C473    1.382   .     S
N438   C475    1.415   .     S
N439   C475    1.331   .     S
N439   C482    1.321   .     S
N440   C482    1.421   .     S
N440   C483    1.356   .     S
N440   C485    1.381   .     S
N441   C483    1.309   .     S
N441   C487    1.383   .     S
N442   C489    1.309   .     S
N442   C491    1.379   1_556 S
N442   Co638   2.084   .     S
N443   C489    1.355   .     S
N443   C493    1.372   1_556 S
N443   C495    1.419   .     S
N444   C495    1.328   .     S
N444   C502    1.325   .     S
N445   C502    1.420   .     S
N445   C503    1.350   .     S
N445   C505    1.378   .     S
N446   C507    1.378   .     S
N446   C503    1.307   .     S
C447   O427    1.251   1_565 S
C447   C448    1.491   .     S
C448   C449    1.387   .     S
C448   C456    1.389   1_565 S
C449   H450    0.950   .     S
C449   C451    1.384   .     S
C451   H452    0.949   1_655 S
C451   C453    1.380   1_655 S
H452   C451    0.949   1_455 S
C453   C451    1.380   1_455 S
C453   C454    1.380   1_465 S
C454   C453    1.380   1_645 S
C454   H455    0.950   .     S
C454   C456    1.386   .     S
C456   C448    1.389   1_545 S
C456   H457    0.949   .     S
C458   O429    1.383   1_545 S
C458   C459    1.381   .     S
C458   C466    1.387   .     S
C459   H460    0.950   .     S
C459   C461    1.380   .     S
C461   H462    0.950   .     S
C461   C463    1.392   .     S
C463   C464    1.390   .     S
C463   C468    1.490   .     S
C464   H465    0.951   .     S
C464   C466    1.383   .     S
C466   H467    0.949   .     S
C469   H470    0.950   .     S
C471   H472    0.951   .     S
C471   C473    1.347   .     S
C473   H474    0.951   .     S
C475   C476    1.387   .     S
C476   H477    0.949   .     S
C476   C478    1.376   .     S
C478   H479    0.951   .     S
C478   C480    1.379   .     S
C480   H481    0.950   .     S
C480   C482    1.381   .     S
C483   H484    0.949   .     S
C485   H486    0.950   .     S
C485   C487    1.344   .     S
C487   H488    0.950   .     S
C489   H490    0.950   .     S
C491   N442    1.379   1_554 S
C491   H492    0.950   .     S
C491   C493    1.345   .     S
C493   N443    1.372   1_554 S
C493   H494    0.951   .     S
C495   C496    1.378   1_556 S
C496   C495    1.378   1_554 S
C496   H497    0.951   .     S
C496   C498    1.378   1_554 S
C498   C496    1.378   1_556 S
C498   H499    0.950   1_556 S
C498   C500    1.382   .     S
H499   C498    0.950   1_554 S
C500   H501    0.949   .     S
C500   C502    1.377   .     S
C503   H504    0.951   .     S
C505   H506    0.950   .     S
C505   C507    1.349   .     S
C507   H508    0.950   1_565 S
H508   C507    0.950   1_545 S
C509   C510    1.489   .     S
C510   C511    1.389   .     S
C510   C518    1.392   .     S
C511   H512    0.950   .     S
C511   C513    1.385   .     S
C513   H514    0.950   .     S
C513   C515    1.387   .     S
C515   C516    1.380   .     S
C516   H517    0.950   .     S
C516   C518    1.379   .     S
C518   H519    0.950   .     S
C520   C521    1.379   .     S
C520   C528    1.380   .     S
C521   H522    0.950   .     S
C521   C523    1.382   .     S
C523   H524    0.950   .     S
C523   C525    1.391   .     S
C525   C526    1.382   .     S
C525   C530    1.488   .     S
C526   H527    0.951   .     S
C526   C528    1.385   .     S
C528   H529    0.949   .     S
Co531  O533    2.231   1_545 S
Co531  O534    2.067   .     S
Co531  O541    2.202   1_545 S
Co531  O542    2.125   1_545 S
Co531  N543    2.099   .     S
Co531  N552    2.078   .     S
Co532  O536    2.237   .     S
Co532  O537    2.069   .     S
Co532  O8      2.183   1_455 S
Co532  O9      2.122   1_455 S
Co532  N123    2.090   1_454 S
Co532  N760    2.084   .     S
O533   Co531   2.231   1_565 S
O533   C553    1.251   1_565 S
O534   C553    1.274   .     S
O535   C559    1.385   .     S
O535   C564    1.383   1_545 S
O536   C574    1.250   .     S
O537   C574    1.280   .     S
O538   C615    1.264   .     S
O539   C615    1.266   .     S
O540   C621    1.388   .     S
O540   C626    1.391   .     S
O541   Co531   2.202   1_565 S
O541   C636    1.250   .     S
O542   Co531   2.125   1_565 S
O542   C636    1.270   .     S
N543   C575    1.313   .     S
N543   C577    1.377   .     S
N544   C575    1.356   1_455 S
N544   C579    1.382   1_455 S
N544   C581    1.415   .     S
N545   C581    1.331   .     S
N545   C588    1.321   .     S
N546   C588    1.421   .     S
N546   C589    1.356   .     S
N546   C591    1.381   .     S
N547   C589    1.309   .     S
N547   C593    1.383   .     S
N547   Co108   2.090   1_454 S
N548   C595    1.309   .     S
N548   C597    1.379   .     S
N548   Co744   2.084   .     S
N549   C595    1.355   .     S
N549   C599    1.372   .     S
N549   C601    1.419   .     S
N550   C601    1.328   .     S
N550   C608    1.325   .     S
N551   C608    1.420   .     S
N551   C609    1.350   .     S
N551   C611    1.378   .     S
N552   C613    1.378   .     S
N552   C609    1.307   .     S
C553   O533    1.251   1_545 S
C553   C554    1.491   .     S
C554   C555    1.387   .     S
C554   C562    1.389   1_545 S
C555   H556    0.950   .     S
C555   C557    1.384   .     S
C557   H558    0.949   .     S
C557   C559    1.380   .     S
C559   C560    1.380   1_545 S
C560   C559    1.380   1_565 S
C560   H561    0.950   .     S
C560   C562    1.386   .     S
C562   C554    1.389   1_565 S
C562   H563    0.949   .     S
C564   O535    1.383   1_565 S
C564   C565    1.381   .     S
C564   C572    1.387   .     S
C565   H566    0.950   1_554 S
C565   C567    1.380   .     S
H566   C565    0.950   1_556 S
C567   H568    0.950   1_554 S
C567   C569    1.392   .     S
H568   C567    0.950   1_556 S
C569   C570    1.390   .     S
C569   C574    1.490   .     S
C570   H571    0.951   .     S
C570   C572    1.383   .     S
C572   H573    0.949   .     S
C575   N544    1.356   1_655 S
C575   H576    0.950   .     S
C577   H578    0.951   .     S
C577   C579    1.347   .     S
C579   N544    1.382   1_655 S
C579   H580    0.951   1_655 S
H580   C579    0.951   1_455 S
C581   C582    1.387   .     S
C582   H583    0.949   .     S
C582   C584    1.376   .     S
C584   H585    0.951   .     S
C584   C586    1.379   .     S
C586   H587    0.950   .     S
C586   C588    1.381   .     S
C589   H590    0.949   .     S
C591   H592    0.950   .     S
C591   C593    1.344   .     S
C593   H594    0.950   1_554 S
H594   C593    0.950   1_556 S
C595   H596    0.950   .     S
C597   H598    0.950   .     S
C597   C599    1.345   .     S
C599   H600    0.951   .     S
C601   C602    1.378   .     S
C602   H603    0.951   .     S
C602   C604    1.378   .     S
C604   H605    0.950   .     S
C604   C606    1.382   .     S
C606   H607    0.949   .     S
C606   C608    1.377   .     S
C609   H610    0.951   .     S
C611   H612    0.950   .     S
C611   C613    1.349   .     S
C613   H614    0.950   1_545 S
H614   C613    0.950   1_565 S
C615   C616    1.489   .     S
C616   C617    1.389   .     S
C616   C624    1.392   .     S
C617   H618    0.950   .     S
C617   C619    1.385   .     S
C619   H620    0.950   .     S
C619   C621    1.387   .     S
C621   C622    1.380   .     S
C622   H623    0.950   .     S
C622   C624    1.379   .     S
C624   H625    0.950   .     S
C626   C627    1.379   .     S
C626   C634    1.380   .     S
C627   H628    0.950   .     S
C627   C629    1.382   .     S
C629   H630    0.950   .     S
C629   C631    1.391   1_455 S
C631   C629    1.391   1_655 S
C631   C632    1.382   .     S
C631   C636    1.488   .     S
C632   H633    0.951   .     S
C632   C634    1.385   1_655 S
C634   H635    0.949   .     S
C634   C632    1.385   1_455 S
Co637  O639    2.231   .     S
Co637  O640    2.067   .     S
Co637  O647    2.202   .     S
Co637  O648    2.125   .     S
Co637  N649    2.099   .     S
Co637  N658    2.078   .     S
Co638  O642    2.237   .     S
Co638  O643    2.069   .     S
Co638  N229    2.090   1_556 S
O639   C659    1.251   .     S
O640   C659    1.274   .     S
O641   C665    1.385   .     S
O641   C670    1.383   .     S
O642   C680    1.250   .     S
O643   C680    1.280   .     S
O644   C721    1.264   .     S
O644   Co320   2.183   1_655 S
O645   C721    1.266   .     S
O645   Co320   2.122   1_655 S
O646   C727    1.388   .     S
O646   C732    1.391   .     S
O647   C742    1.250   .     S
O648   C742    1.270   .     S
N649   C681    1.313   .     S
N649   C683    1.377   .     S
N650   C681    1.356   .     S
N650   C685    1.382   .     S
N650   C687    1.415   .     S
N651   C687    1.331   .     S
N651   C694    1.321   .     S
N652   C694    1.421   .     S
N652   C695    1.356   .     S
N652   C697    1.381   .     S
N653   C695    1.309   .     S
N653   C699    1.383   .     S
N653   Co214   2.090   1_556 S
N654   C701    1.309   .     S
N654   C703    1.379   .     S
N655   C701    1.355   .     S
N655   C705    1.372   .     S
N655   C707    1.419   .     S
N656   C707    1.328   .     S
N656   C714    1.325   .     S
N657   C714    1.420   .     S
N657   C715    1.350   .     S
N657   C717    1.378   .     S
N658   C719    1.378   .     S
N658   C715    1.307   .     S
C659   C660    1.491   .     S
C660   C661    1.387   .     S
C660   C668    1.389   .     S
C661   H662    0.950   .     S
C661   C663    1.384   .     S
C663   H664    0.949   1_455 S
C663   C665    1.380   1_455 S
H664   C663    0.949   1_655 S
C665   C663    1.380   1_655 S
C665   C666    1.380   1_655 S
C666   C665    1.380   1_455 S
C666   H667    0.950   .     S
C666   C668    1.386   .     S
C668   H669    0.949   .     S
C670   C671    1.381   .     S
C670   C678    1.387   .     S
C671   H672    0.950   1_556 S
C671   C673    1.380   .     S
H672   C671    0.950   1_554 S
C673   H674    0.950   1_556 S
C673   C675    1.392   .     S
H674   C673    0.950   1_554 S
C675   C676    1.390   .     S
C675   C680    1.490   .     S
C676   H677    0.951   .     S
C676   C678    1.383   .     S
C678   H679    0.949   .     S
C681   H682    0.950   .     S
C683   H684    0.951   .     S
C683   C685    1.347   .     S
C685   H686    0.951   .     S
C687   C688    1.387   .     S
C688   H689    0.949   .     S
C688   C690    1.376   .     S
C690   H691    0.951   .     S
C690   C692    1.379   .     S
C692   H693    0.950   .     S
C692   C694    1.381   .     S
C695   H696    0.949   .     S
C697   H698    0.950   .     S
C697   C699    1.344   .     S
C699   H700    0.950   1_556 S
H700   C699    0.950   1_554 S
C701   H702    0.950   .     S
C703   H704    0.950   .     S
C703   C705    1.345   .     S
C705   H706    0.951   .     S
C707   C708    1.378   .     S
C708   H709    0.951   .     S
C708   C710    1.378   .     S
C710   H711    0.950   .     S
C710   C712    1.382   .     S
C712   H713    0.949   .     S
C712   C714    1.377   .     S
C715   H716    0.951   .     S
C717   H718    0.950   .     S
C717   C719    1.349   .     S
C719   H720    0.950   .     S
C721   C722    1.489   .     S
C722   C723    1.389   .     S
C722   C730    1.392   .     S
C723   H724    0.950   .     S
C723   C725    1.385   .     S
C725   H726    0.950   .     S
C725   C727    1.387   .     S
C727   C728    1.380   .     S
C728   H729    0.950   .     S
C728   C730    1.379   .     S
C730   H731    0.950   .     S
C732   C733    1.379   .     S
C732   C740    1.380   .     S
C733   H734    0.950   .     S
C733   C735    1.382   .     S
C735   H736    0.950   .     S
C735   C737    1.391   .     S
C737   C738    1.382   .     S
C737   C742    1.488   .     S
C738   H739    0.951   .     S
C738   C740    1.385   .     S
C740   H741    0.949   .     S
Co743  O745    2.231   .     S
Co743  O746    2.067   .     S
Co743  O753    2.202   .     S
Co743  O754    2.125   .     S
Co743  N755    2.099   .     S
Co743  N764    2.078   .     S
Co744  O748    2.237   .     S
Co744  O749    2.069   .     S
Co744  O220    2.183   1_655 S
Co744  O221    2.122   1_655 S
Co744  N335    2.090   1_655 S
O745   C765    1.251   .     S
O746   C765    1.274   .     S
O747   C771    1.385   .     S
O747   C776    1.383   .     S
O748   C786    1.250   .     S
O749   C786    1.280   .     S
O750   C827    1.264   .     S
O751   C827    1.266   .     S
O752   C833    1.388   .     S
O752   C838    1.391   .     S
O753   C848    1.250   .     S
O754   C848    1.270   .     S
N755   C787    1.313   .     S
N755   C789    1.377   .     S
N756   C787    1.356   1_655 S
N756   C791    1.382   1_655 S
N756   C793    1.415   .     S
N757   C793    1.331   .     S
N757   C800    1.321   .     S
N758   C800    1.421   .     S
N758   C801    1.356   .     S
N758   C803    1.381   .     S
N759   C801    1.309   .     S
N759   C805    1.383   .     S
N759   Co320   2.090   1_655 S
N760   C807    1.309   .     S
N760   C809    1.379   1_554 S
N761   C807    1.355   .     S
N761   C811    1.372   1_554 S
N761   C813    1.419   .     S
N762   C813    1.328   .     S
N762   C820    1.325   .     S
N763   C820    1.420   .     S
N763   C821    1.350   .     S
N763   C823    1.378   .     S
N764   C825    1.378   .     S
N764   C821    1.307   .     S
C765   C766    1.491   .     S
C766   C767    1.387   .     S
C766   C774    1.389   .     S
C767   H768    0.950   .     S
C767   C769    1.384   .     S
C769   H770    0.949   .     S
C769   C771    1.380   .     S
C771   C772    1.380   .     S
C772   H773    0.950   .     S
C772   C774    1.386   .     S
C774   H775    0.949   .     S
C776   C777    1.381   .     S
C776   C784    1.387   .     S
C777   H778    0.950   .     S
C777   C779    1.380   .     S
C779   H780    0.950   .     S
C779   C781    1.392   .     S
C781   C782    1.390   .     S
C781   C786    1.490   .     S
C782   H783    0.951   .     S
C782   C784    1.383   .     S
C784   H785    0.949   .     S
C787   N756    1.356   1_455 S
C787   H788    0.950   .     S
C789   H790    0.951   .     S
C789   C791    1.347   .     S
C791   N756    1.382   1_455 S
C791   H792    0.951   1_455 S
H792   C791    0.951   1_655 S
C793   C794    1.387   .     S
C794   H795    0.949   .     S
C794   C796    1.376   .     S
C796   H797    0.951   .     S
C796   C798    1.379   .     S
C798   H799    0.950   .     S
C798   C800    1.381   .     S
C801   H802    0.949   .     S
C803   H804    0.950   .     S
C803   C805    1.344   .     S
C805   H806    0.950   .     S
C807   H808    0.950   .     S
C809   N760    1.379   1_556 S
C809   H810    0.950   .     S
C809   C811    1.345   .     S
C811   N761    1.372   1_556 S
C811   H812    0.951   .     S
C813   C814    1.378   1_554 S
C814   C813    1.378   1_556 S
C814   H815    0.951   .     S
C814   C816    1.378   1_556 S
C816   C814    1.378   1_554 S
C816   H817    0.950   1_554 S
C816   C818    1.382   .     S
H817   C816    0.950   1_556 S
C818   H819    0.949   .     S
C818   C820    1.377   .     S
C821   H822    0.951   .     S
C823   H824    0.950   .     S
C823   C825    1.349   .     S
C825   H826    0.950   .     S
C827   C828    1.489   .     S
C828   C829    1.389   .     S
C828   C836    1.392   .     S
C829   H830    0.950   .     S
C829   C831    1.385   .     S
C831   H832    0.950   .     S
C831   C833    1.387   .     S
C833   C834    1.380   .     S
C834   H835    0.950   .     S
C834   C836    1.379   .     S
C836   H837    0.950   .     S
C838   C839    1.379   .     S
C838   C846    1.380   .     S
C839   H840    0.950   .     S
C839   C841    1.382   .     S
C841   H842    0.950   .     S
C841   C843    1.391   1_655 S
C843   C841    1.391   1_455 S
C843   C844    1.382   .     S
C843   C848    1.488   .     S
C844   H845    0.951   .     S
C844   C846    1.385   1_455 S
C846   H847    0.949   .     S
C846   C844    1.385   1_655 S
