data_YEXCUC_FSR
_audit_creation_date              2024-06-11
_audit_creation_method            'Materials Studio'
_symmetry_space_group_name_H-M    'P1'
_symmetry_Int_Tables_number       1
_symmetry_cell_setting            triclinic
loop_
_symmetry_equiv_pos_as_xyz
  x,y,z
_cell_length_a                    23.3502
_cell_length_b                    24.8738
_cell_length_c                    36.0125
_cell_angle_alpha                 90.0000
_cell_angle_beta                  92.4016
_cell_angle_gamma                 90.0000
loop_
_atom_site_label
_atom_site_type_symbol
_atom_site_fract_x
_atom_site_fract_y
_atom_site_fract_z
_atom_site_U_iso_or_equiv
_atom_site_adp_type
_atom_site_occupancy
In1    In    0.39044   0.51604   0.39580   0.07632  Uani   1.00
O2     O     0.84720   0.05280   0.44037   0.11808  Uani   1.00
O3     O     0.84650   0.02180   0.84745   0.11956  Uani   1.00
O4     O     0.81440   0.08300   0.38906   0.13065  Uani   1.00
O5     O     0.44150   0.48317   0.44281   0.11701  Uani   1.00
O6     O     0.45860   0.40580   0.90240   0.13307  Uani   1.00
O7     O     0.43520   0.44570   0.85201   0.11686  Uani   1.00
O8     O     0.45630   0.44390   0.39162   0.13109  Uani   1.00
O9     O     0.82030   0.05390   0.89962   0.12503  Uani   1.00
N10    N     0.63680   0.25920   0.48737   0.09859  Uani   1.00
N11    N     0.63730   0.23520   0.80225   0.12175  Uani   1.00
C12    C     0.55270   0.37990   0.50152   0.12152  Uani   1.00
H13    H     0.56360   0.38700   0.52620   0.14600  Uiso   1.00
C14    C     0.60520   0.29330   0.50681   0.09703  Uani   1.00
C15    C     0.51190   0.38620   0.81144   0.11189  Uani   1.00
H16    H     0.49530   0.41650   0.80030   0.13400  Uiso   1.00
C17    C     0.77410   0.11900   0.44264   0.09728  Uani   1.00
C18    C     0.60340   0.29030   0.54523   0.10126  Uani   1.00
H19    H     0.58070   0.31420   0.55800   0.12100  Uiso   1.00
C20    C     0.57150   0.33370   0.48546   0.09341  Uani   1.00
C21    C     0.60400   0.27080   0.78345   0.11747  Uani   1.00
C22    C     0.50110   0.37500   0.84799   0.09088  Uani   1.00
C23    C     0.46600   0.44690   0.42534   0.09431  Uani   1.00
C24    C     0.50470   0.40850   0.44567   0.09376  Uani   1.00
C25    C     0.66800   0.22170   0.50593   0.09759  Uani   1.00
C26    C     0.66760   0.21620   0.54440   0.10879  Uani   1.00
H27    H     0.68860   0.18910   0.55640   0.13100  Uiso   1.00
C28    C     0.60240   0.27320   0.74471   0.12381  Uani   1.00
H29    H     0.57970   0.29890   0.73250   0.14900  Uiso   1.00
C30    C     0.54610   0.35400   0.79128   0.11669  Uani   1.00
H31    H     0.55360   0.36350   0.76700   0.14000  Uiso   1.00
C32    C     0.63340   0.24720   0.60567   0.11399  Uani   1.00
C33    C     0.63320   0.24150   0.68323   0.12876  Uani   1.00
C34    C     0.63540   0.25190   0.56458   0.10843  Uani   1.00
C35    C     0.46390   0.41050   0.86880   0.09489  Uani   1.00
C36    C     0.55730   0.32630   0.44809   0.13188  Uani   1.00
H37    H     0.56970   0.29570   0.43600   0.15800  Uiso   1.00
C38    C     0.77690   0.11840   0.48080   0.14074  Uani   1.00
H39    H     0.80170   0.09490   0.49350   0.16900  Uiso   1.00
C40    C     0.81280   0.08330   0.42290   0.10210  Uani   1.00
C41    C     0.70480   0.18590   0.48372   0.10101  Uani   1.00
C42    C     0.57010   0.30750   0.80629   0.10489  Uani   1.00
C43    C     0.73760   0.15340   0.42640   0.15256  Uani   1.00
H44    H     0.73590   0.15540   0.40060   0.18300  Uiso   1.00
C45    C     0.51810   0.41620   0.48220   0.12419  Uani   1.00
H46    H     0.50400   0.44610   0.49440   0.14900  Uiso   1.00
C47    C     0.74300   0.15260   0.50001   0.14440  Uani   1.00
H48    H     0.74680   0.15260   0.52580   0.17300  Uiso   1.00
C49    C     0.70190   0.18610   0.44590   0.14232  Uani   1.00
H50    H     0.67590   0.20850   0.43320   0.17100  Uiso   1.00
C51    C     0.52480   0.32970   0.86280   0.14553  Uani   1.00
H52    H     0.51830   0.32090   0.88740   0.17500  Uiso   1.00
C53    C     0.63350   0.23850   0.72454   0.12311  Uani   1.00
C54    C     0.52480   0.36420   0.42878   0.13237  Uani   1.00
H55    H     0.51650   0.35920   0.40350   0.15900  Uiso   1.00
C56    C     0.66800   0.20190   0.74422   0.14252  Uani   1.00
H57    H     0.69040   0.17770   0.73150   0.17100  Uiso   1.00
C58    C     0.77770   0.09170   0.84420   0.11767  Uani   1.00
C59    C     0.66920   0.20150   0.78270   0.12867  Uani   1.00
C60    C     0.81610   0.05390   0.86530   0.11171  Uani   1.00
C61    C     0.70540   0.16160   0.80437   0.12881  Uani   1.00
C62    C     0.62680   0.29080   0.62680   0.16913  Uani   1.00
H63    H     0.62390   0.32450   0.61580   0.20300  Uiso   1.00
C64    C     0.55880   0.29580   0.84180   0.15321  Uani   1.00
H65    H     0.57390   0.26460   0.85250   0.18400  Uiso   1.00
C66    C     0.62420   0.28580   0.66530   0.17802  Uani   1.00
H67    H     0.61540   0.31630   0.67890   0.21400  Uiso   1.00
C68    C     0.73870   0.12480   0.78780   0.21308  Uani   1.00
H69    H     0.73430   0.12010   0.76220   0.25600  Uiso   1.00
C70    C     0.70760   0.16210   0.84170   0.17877  Uani   1.00
H71    H     0.68500   0.18620   0.85440   0.21500  Uiso   1.00
C72    C     0.74320   0.12680   0.86150   0.16765  Uani   1.00
H73    H     0.74350   0.12720   0.88730   0.20100  Uiso   1.00
C74    C     0.63800   0.19820   0.62400   0.19679  Uani   1.00
H75    H     0.64270   0.16710   0.61000   0.23600  Uiso   1.00
C76    C     0.63600   0.19400   0.66140   0.22848  Uani   1.00
H77    H     0.63650   0.16040   0.67270   0.27400  Uiso   1.00
C78    C     0.77940   0.09380   0.80750   0.18798  Uani   1.00
H79    H     0.80720   0.07490   0.79510   0.22600  Uiso   1.00
In80   In    0.89044   0.01604   0.39580   0.07632  Uani   1.00
O81    O     0.34720   0.55280   0.44037   0.11808  Uani   1.00
O82    O     0.34650   0.52180   0.84745   0.11956  Uani   1.00
O83    O     0.31440   0.58300   0.38906   0.13065  Uani   1.00
O84    O     0.94150   0.98317   0.44281   0.11701  Uani   1.00
O85    O     0.95860   0.90580   0.90240   0.13307  Uani   1.00
O86    O     0.93520   0.94570   0.85201   0.11686  Uani   1.00
O87    O     0.95630   0.94390   0.39162   0.13109  Uani   1.00
O88    O     0.32030   0.55390   0.89962   0.12503  Uani   1.00
N89    N     0.13680   0.75920   0.48737   0.09859  Uani   1.00
N90    N     0.13730   0.73520   0.80225   0.12175  Uani   1.00
C91    C     0.05270   0.87990   0.50152   0.12152  Uani   1.00
H92    H     0.06360   0.88700   0.52620   0.14600  Uiso   1.00
C93    C     0.10520   0.79330   0.50681   0.09703  Uani   1.00
C94    C     0.01190   0.88620   0.81144   0.11189  Uani   1.00
H95    H     0.99530   0.91650   0.80030   0.13400  Uiso   1.00
C96    C     0.27410   0.61900   0.44264   0.09728  Uani   1.00
C97    C     0.10340   0.79030   0.54523   0.10126  Uani   1.00
H98    H     0.08070   0.81420   0.55800   0.12100  Uiso   1.00
C99    C     0.07150   0.83370   0.48546   0.09341  Uani   1.00
C100   C     0.10400   0.77080   0.78345   0.11747  Uani   1.00
C101   C     0.00110   0.87500   0.84799   0.09088  Uani   1.00
C102   C     0.96600   0.94690   0.42534   0.09431  Uani   1.00
C103   C     0.00470   0.90850   0.44567   0.09376  Uani   1.00
C104   C     0.16800   0.72170   0.50593   0.09759  Uani   1.00
C105   C     0.16760   0.71620   0.54440   0.10879  Uani   1.00
H106   H     0.18860   0.68910   0.55640   0.13100  Uiso   1.00
C107   C     0.10240   0.77320   0.74471   0.12381  Uani   1.00
H108   H     0.07970   0.79890   0.73250   0.14900  Uiso   1.00
C109   C     0.04610   0.85400   0.79128   0.11669  Uani   1.00
H110   H     0.05360   0.86350   0.76700   0.14000  Uiso   1.00
C111   C     0.13340   0.74720   0.60567   0.11399  Uani   1.00
C112   C     0.13320   0.74150   0.68323   0.12876  Uani   1.00
C113   C     0.13540   0.75190   0.56458   0.10843  Uani   1.00
C114   C     0.96390   0.91050   0.86880   0.09489  Uani   1.00
C115   C     0.05730   0.82630   0.44809   0.13188  Uani   1.00
H116   H     0.06970   0.79570   0.43600   0.15800  Uiso   1.00
C117   C     0.27690   0.61840   0.48080   0.14074  Uani   1.00
H118   H     0.30170   0.59490   0.49350   0.16900  Uiso   1.00
C119   C     0.31280   0.58330   0.42290   0.10210  Uani   1.00
C120   C     0.20480   0.68590   0.48372   0.10101  Uani   1.00
C121   C     0.07010   0.80750   0.80629   0.10489  Uani   1.00
C122   C     0.23760   0.65340   0.42640   0.15256  Uani   1.00
H123   H     0.23590   0.65540   0.40060   0.18300  Uiso   1.00
C124   C     0.01810   0.91620   0.48220   0.12419  Uani   1.00
H125   H     0.00400   0.94610   0.49440   0.14900  Uiso   1.00
C126   C     0.24300   0.65260   0.50001   0.14440  Uani   1.00
H127   H     0.24680   0.65260   0.52580   0.17300  Uiso   1.00
C128   C     0.20190   0.68610   0.44590   0.14232  Uani   1.00
H129   H     0.17590   0.70850   0.43320   0.17100  Uiso   1.00
C130   C     0.02480   0.82970   0.86280   0.14553  Uani   1.00
H131   H     0.01830   0.82090   0.88740   0.17500  Uiso   1.00
C132   C     0.13350   0.73850   0.72454   0.12311  Uani   1.00
C133   C     0.02480   0.86420   0.42878   0.13237  Uani   1.00
H134   H     0.01650   0.85920   0.40350   0.15900  Uiso   1.00
C135   C     0.16800   0.70190   0.74422   0.14252  Uani   1.00
H136   H     0.19040   0.67770   0.73150   0.17100  Uiso   1.00
C137   C     0.27770   0.59170   0.84420   0.11767  Uani   1.00
C138   C     0.16920   0.70150   0.78270   0.12867  Uani   1.00
C139   C     0.31610   0.55390   0.86530   0.11171  Uani   1.00
C140   C     0.20540   0.66160   0.80437   0.12881  Uani   1.00
C141   C     0.12680   0.79080   0.62680   0.16913  Uani   1.00
H142   H     0.12390   0.82450   0.61580   0.20300  Uiso   1.00
C143   C     0.05880   0.79580   0.84180   0.15321  Uani   1.00
H144   H     0.07390   0.76460   0.85250   0.18400  Uiso   1.00
C145   C     0.12420   0.78580   0.66530   0.17802  Uani   1.00
H146   H     0.11540   0.81630   0.67890   0.21400  Uiso   1.00
C147   C     0.23870   0.62480   0.78780   0.21308  Uani   1.00
H148   H     0.23430   0.62010   0.76220   0.25600  Uiso   1.00
C149   C     0.20760   0.66210   0.84170   0.17877  Uani   1.00
H150   H     0.18500   0.68620   0.85440   0.21500  Uiso   1.00
C151   C     0.24320   0.62680   0.86150   0.16765  Uani   1.00
H152   H     0.24350   0.62720   0.88730   0.20100  Uiso   1.00
C153   C     0.13800   0.69820   0.62400   0.19679  Uani   1.00
H154   H     0.14270   0.66710   0.61000   0.23600  Uiso   1.00
C155   C     0.13600   0.69400   0.66140   0.22848  Uani   1.00
H156   H     0.13650   0.66040   0.67270   0.27400  Uiso   1.00
C157   C     0.27940   0.59380   0.80750   0.18798  Uani   1.00
H158   H     0.30720   0.57490   0.79510   0.22600  Uiso   1.00
In159  In    0.60956   0.51604   0.10420   0.07632  Uani   1.00
O160   O     0.15280   0.05280   0.05963   0.11808  Uani   1.00
O161   O     0.15350   0.02180   0.65255   0.11956  Uani   1.00
O162   O     0.18560   0.08300   0.11094   0.13065  Uani   1.00
O163   O     0.55850   0.48317   0.05719   0.11701  Uani   1.00
O164   O     0.54140   0.40580   0.59760   0.13307  Uani   1.00
O165   O     0.56480   0.44570   0.64799   0.11686  Uani   1.00
O166   O     0.54370   0.44390   0.10838   0.13109  Uani   1.00
O167   O     0.17970   0.05390   0.60038   0.12503  Uani   1.00
N168   N     0.36320   0.25920   0.01263   0.09859  Uani   1.00
N169   N     0.36270   0.23520   0.69775   0.12175  Uani   1.00
C170   C     0.44730   0.37990   0.99848   0.12152  Uani   1.00
H171   H     0.43640   0.38700   0.97380   0.14600  Uiso   1.00
C172   C     0.39480   0.29330   0.99319   0.09703  Uani   1.00
C173   C     0.48810   0.38620   0.68856   0.11189  Uani   1.00
H174   H     0.50470   0.41650   0.69970   0.13400  Uiso   1.00
C175   C     0.22590   0.11900   0.05736   0.09728  Uani   1.00
C176   C     0.39660   0.29030   0.95477   0.10126  Uani   1.00
H177   H     0.41930   0.31420   0.94200   0.12100  Uiso   1.00
C178   C     0.42850   0.33370   0.01454   0.09341  Uani   1.00
C179   C     0.39600   0.27080   0.71655   0.11747  Uani   1.00
C180   C     0.49890   0.37500   0.65201   0.09088  Uani   1.00
C181   C     0.53400   0.44690   0.07466   0.09431  Uani   1.00
C182   C     0.49530   0.40850   0.05433   0.09376  Uani   1.00
C183   C     0.33200   0.22170   0.99407   0.09759  Uani   1.00
C184   C     0.33240   0.21620   0.95560   0.10879  Uani   1.00
H185   H     0.31140   0.18910   0.94360   0.13100  Uiso   1.00
C186   C     0.39760   0.27320   0.75529   0.12381  Uani   1.00
H187   H     0.42030   0.29890   0.76750   0.14900  Uiso   1.00
C188   C     0.45390   0.35400   0.70872   0.11669  Uani   1.00
H189   H     0.44640   0.36350   0.73300   0.14000  Uiso   1.00
C190   C     0.36660   0.24720   0.89433   0.11399  Uani   1.00
C191   C     0.36680   0.24150   0.81677   0.12876  Uani   1.00
C192   C     0.36460   0.25190   0.93542   0.10843  Uani   1.00
C193   C     0.53610   0.41050   0.63120   0.09489  Uani   1.00
C194   C     0.44270   0.32630   0.05191   0.13188  Uani   1.00
H195   H     0.43030   0.29570   0.06400   0.15800  Uiso   1.00
C196   C     0.22310   0.11840   0.01920   0.14074  Uani   1.00
H197   H     0.19830   0.09490   0.00650   0.16900  Uiso   1.00
C198   C     0.18720   0.08330   0.07710   0.10210  Uani   1.00
C199   C     0.29520   0.18590   0.01628   0.10101  Uani   1.00
C200   C     0.42990   0.30750   0.69371   0.10489  Uani   1.00
C201   C     0.26240   0.15340   0.07360   0.15256  Uani   1.00
H202   H     0.26410   0.15540   0.09940   0.18300  Uiso   1.00
C203   C     0.48190   0.41620   0.01780   0.12419  Uani   1.00
H204   H     0.49600   0.44610   0.00560   0.14900  Uiso   1.00
C205   C     0.25700   0.15260  -0.00001   0.14440  Uani   1.00
H206   H     0.25320   0.15260   0.97420   0.17300  Uiso   1.00
C207   C     0.29810   0.18610   0.05410   0.14232  Uani   1.00
H208   H     0.32410   0.20850   0.06680   0.17100  Uiso   1.00
C209   C     0.47520   0.32970   0.63720   0.14553  Uani   1.00
H210   H     0.48170   0.32090   0.61260   0.17500  Uiso   1.00
C211   C     0.36650   0.23850   0.77546   0.12311  Uani   1.00
C212   C     0.47520   0.36420   0.07122   0.13237  Uani   1.00
H213   H     0.48350   0.35920   0.09650   0.15900  Uiso   1.00
C214   C     0.33200   0.20190   0.75578   0.14252  Uani   1.00
H215   H     0.30960   0.17770   0.76850   0.17100  Uiso   1.00
C216   C     0.22230   0.09170   0.65580   0.11767  Uani   1.00
C217   C     0.33080   0.20150   0.71730   0.12867  Uani   1.00
C218   C     0.18390   0.05390   0.63470   0.11171  Uani   1.00
C219   C     0.29460   0.16160   0.69563   0.12881  Uani   1.00
C220   C     0.37320   0.29080   0.87320   0.16913  Uani   1.00
H221   H     0.37610   0.32450   0.88420   0.20300  Uiso   1.00
C222   C     0.44120   0.29580   0.65820   0.15321  Uani   1.00
H223   H     0.42610   0.26460   0.64750   0.18400  Uiso   1.00
C224   C     0.37580   0.28580   0.83470   0.17802  Uani   1.00
H225   H     0.38460   0.31630   0.82110   0.21400  Uiso   1.00
C226   C     0.26130   0.12480   0.71220   0.21308  Uani   1.00
H227   H     0.26570   0.12010   0.73780   0.25600  Uiso   1.00
C228   C     0.29240   0.16210   0.65830   0.17877  Uani   1.00
H229   H     0.31500   0.18620   0.64560   0.21500  Uiso   1.00
C230   C     0.25680   0.12680   0.63850   0.16765  Uani   1.00
H231   H     0.25650   0.12720   0.61270   0.20100  Uiso   1.00
C232   C     0.36200   0.19820   0.87600   0.19679  Uani   1.00
H233   H     0.35730   0.16710   0.89000   0.23600  Uiso   1.00
C234   C     0.36400   0.19400   0.83860   0.22848  Uani   1.00
H235   H     0.36350   0.16040   0.82730   0.27400  Uiso   1.00
C236   C     0.22060   0.09380   0.69250   0.18798  Uani   1.00
H237   H     0.19280   0.07490   0.70490   0.22600  Uiso   1.00
In238  In    0.10956   0.01604   0.10420   0.07632  Uani   1.00
O239   O     0.65280   0.55280   0.05963   0.11808  Uani   1.00
O240   O     0.65350   0.52180   0.65255   0.11956  Uani   1.00
O241   O     0.68560   0.58300   0.11094   0.13065  Uani   1.00
O242   O     0.05850   0.98317   0.05719   0.11701  Uani   1.00
O243   O     0.04140   0.90580   0.59760   0.13307  Uani   1.00
O244   O     0.06480   0.94570   0.64799   0.11686  Uani   1.00
O245   O     0.04370   0.94390   0.10838   0.13109  Uani   1.00
O246   O     0.67970   0.55390   0.60038   0.12503  Uani   1.00
N247   N     0.86320   0.75920   0.01263   0.09859  Uani   1.00
N248   N     0.86270   0.73520   0.69775   0.12175  Uani   1.00
C249   C     0.94730   0.87990   0.99848   0.12152  Uani   1.00
H250   H     0.93640   0.88700   0.97380   0.14600  Uiso   1.00
C251   C     0.89480   0.79330   0.99319   0.09703  Uani   1.00
C252   C     0.98810   0.88620   0.68856   0.11189  Uani   1.00
H253   H     0.00470   0.91650   0.69970   0.13400  Uiso   1.00
C254   C     0.72590   0.61900   0.05736   0.09728  Uani   1.00
C255   C     0.89660   0.79030   0.95477   0.10126  Uani   1.00
H256   H     0.91930   0.81420   0.94200   0.12100  Uiso   1.00
C257   C     0.92850   0.83370   0.01454   0.09341  Uani   1.00
C258   C     0.89600   0.77080   0.71655   0.11747  Uani   1.00
C259   C     0.99890   0.87500   0.65201   0.09088  Uani   1.00
C260   C     0.03400   0.94690   0.07466   0.09431  Uani   1.00
C261   C     0.99530   0.90850   0.05433   0.09376  Uani   1.00
C262   C     0.83200   0.72170   0.99407   0.09759  Uani   1.00
C263   C     0.83240   0.71620   0.95560   0.10879  Uani   1.00
H264   H     0.81140   0.68910   0.94360   0.13100  Uiso   1.00
C265   C     0.89760   0.77320   0.75529   0.12381  Uani   1.00
H266   H     0.92030   0.79890   0.76750   0.14900  Uiso   1.00
C267   C     0.95390   0.85400   0.70872   0.11669  Uani   1.00
H268   H     0.94640   0.86350   0.73300   0.14000  Uiso   1.00
C269   C     0.86660   0.74720   0.89433   0.11399  Uani   1.00
C270   C     0.86680   0.74150   0.81677   0.12876  Uani   1.00
C271   C     0.86460   0.75190   0.93542   0.10843  Uani   1.00
C272   C     0.03610   0.91050   0.63120   0.09489  Uani   1.00
C273   C     0.94270   0.82630   0.05191   0.13188  Uani   1.00
H274   H     0.93030   0.79570   0.06400   0.15800  Uiso   1.00
C275   C     0.72310   0.61840   0.01920   0.14074  Uani   1.00
H276   H     0.69830   0.59490   0.00650   0.16900  Uiso   1.00
C277   C     0.68720   0.58330   0.07710   0.10210  Uani   1.00
C278   C     0.79520   0.68590   0.01628   0.10101  Uani   1.00
C279   C     0.92990   0.80750   0.69371   0.10489  Uani   1.00
C280   C     0.76240   0.65340   0.07360   0.15256  Uani   1.00
H281   H     0.76410   0.65540   0.09940   0.18300  Uiso   1.00
C282   C     0.98190   0.91620   0.01780   0.12419  Uani   1.00
H283   H     0.99600   0.94610   0.00560   0.14900  Uiso   1.00
C284   C     0.75700   0.65260  -0.00001   0.14440  Uani   1.00
H285   H     0.75320   0.65260   0.97420   0.17300  Uiso   1.00
C286   C     0.79810   0.68610   0.05410   0.14232  Uani   1.00
H287   H     0.82410   0.70850   0.06680   0.17100  Uiso   1.00
C288   C     0.97520   0.82970   0.63720   0.14553  Uani   1.00
H289   H     0.98170   0.82090   0.61260   0.17500  Uiso   1.00
C290   C     0.86650   0.73850   0.77546   0.12311  Uani   1.00
C291   C     0.97520   0.86420   0.07122   0.13237  Uani   1.00
H292   H     0.98350   0.85920   0.09650   0.15900  Uiso   1.00
C293   C     0.83200   0.70190   0.75578   0.14252  Uani   1.00
H294   H     0.80960   0.67770   0.76850   0.17100  Uiso   1.00
C295   C     0.72230   0.59170   0.65580   0.11767  Uani   1.00
C296   C     0.83080   0.70150   0.71730   0.12867  Uani   1.00
C297   C     0.68390   0.55390   0.63470   0.11171  Uani   1.00
C298   C     0.79460   0.66160   0.69563   0.12881  Uani   1.00
C299   C     0.87320   0.79080   0.87320   0.16913  Uani   1.00
H300   H     0.87610   0.82450   0.88420   0.20300  Uiso   1.00
C301   C     0.94120   0.79580   0.65820   0.15321  Uani   1.00
H302   H     0.92610   0.76460   0.64750   0.18400  Uiso   1.00
C303   C     0.87580   0.78580   0.83470   0.17802  Uani   1.00
H304   H     0.88460   0.81630   0.82110   0.21400  Uiso   1.00
C305   C     0.76130   0.62480   0.71220   0.21308  Uani   1.00
H306   H     0.76570   0.62010   0.73780   0.25600  Uiso   1.00
C307   C     0.79240   0.66210   0.65830   0.17877  Uani   1.00
H308   H     0.81500   0.68620   0.64560   0.21500  Uiso   1.00
C309   C     0.75680   0.62680   0.63850   0.16765  Uani   1.00
H310   H     0.75650   0.62720   0.61270   0.20100  Uiso   1.00
C311   C     0.86200   0.69820   0.87600   0.19679  Uani   1.00
H312   H     0.85730   0.66710   0.89000   0.23600  Uiso   1.00
C313   C     0.86400   0.69400   0.83860   0.22848  Uani   1.00
H314   H     0.86350   0.66040   0.82730   0.27400  Uiso   1.00
C315   C     0.72060   0.59380   0.69250   0.18798  Uani   1.00
H316   H     0.69280   0.57490   0.70490   0.22600  Uiso   1.00
In317  In    0.60956   0.48396   0.60420   0.07632  Uani   1.00
O318   O     0.15280   0.94720   0.55963   0.11808  Uani   1.00
O319   O     0.15350   0.97820   0.15255   0.11956  Uani   1.00
O320   O     0.18560   0.91700   0.61094   0.13065  Uani   1.00
O321   O     0.55850   0.51683   0.55719   0.11701  Uani   1.00
O322   O     0.54140   0.59420   0.09760   0.13307  Uani   1.00
O323   O     0.56480   0.55430   0.14799   0.11686  Uani   1.00
O324   O     0.54370   0.55610   0.60838   0.13109  Uani   1.00
O325   O     0.17970   0.94610   0.10038   0.12503  Uani   1.00
N326   N     0.36320   0.74080   0.51263   0.09859  Uani   1.00
N327   N     0.36270   0.76480   0.19775   0.12175  Uani   1.00
C328   C     0.44730   0.62010   0.49848   0.12152  Uani   1.00
H329   H     0.43640   0.61300   0.47380   0.14600  Uiso   1.00
C330   C     0.39480   0.70670   0.49319   0.09703  Uani   1.00
C331   C     0.48810   0.61380   0.18856   0.11189  Uani   1.00
H332   H     0.50470   0.58350   0.19970   0.13400  Uiso   1.00
C333   C     0.22590   0.88100   0.55736   0.09728  Uani   1.00
C334   C     0.39660   0.70970   0.45477   0.10126  Uani   1.00
H335   H     0.41930   0.68580   0.44200   0.12100  Uiso   1.00
C336   C     0.42850   0.66630   0.51454   0.09341  Uani   1.00
C337   C     0.39600   0.72920   0.21655   0.11747  Uani   1.00
C338   C     0.49890   0.62500   0.15201   0.09088  Uani   1.00
C339   C     0.53400   0.55310   0.57466   0.09431  Uani   1.00
C340   C     0.49530   0.59150   0.55433   0.09376  Uani   1.00
C341   C     0.33200   0.77830   0.49407   0.09759  Uani   1.00
C342   C     0.33240   0.78380   0.45560   0.10879  Uani   1.00
H343   H     0.31140   0.81090   0.44360   0.13100  Uiso   1.00
C344   C     0.39760   0.72680   0.25529   0.12381  Uani   1.00
H345   H     0.42030   0.70110   0.26750   0.14900  Uiso   1.00
C346   C     0.45390   0.64600   0.20872   0.11669  Uani   1.00
H347   H     0.44640   0.63650   0.23300   0.14000  Uiso   1.00
C348   C     0.36660   0.75280   0.39433   0.11399  Uani   1.00
C349   C     0.36680   0.75850   0.31677   0.12876  Uani   1.00
C350   C     0.36460   0.74810   0.43542   0.10843  Uani   1.00
C351   C     0.53610   0.58950   0.13120   0.09489  Uani   1.00
C352   C     0.44270   0.67370   0.55191   0.13188  Uani   1.00
H353   H     0.43030   0.70430   0.56400   0.15800  Uiso   1.00
C354   C     0.22310   0.88160   0.51920   0.14074  Uani   1.00
H355   H     0.19830   0.90510   0.50650   0.16900  Uiso   1.00
C356   C     0.18720   0.91670   0.57710   0.10210  Uani   1.00
C357   C     0.29520   0.81410   0.51628   0.10101  Uani   1.00
C358   C     0.42990   0.69250   0.19371   0.10489  Uani   1.00
C359   C     0.26240   0.84660   0.57360   0.15256  Uani   1.00
H360   H     0.26410   0.84460   0.59940   0.18300  Uiso   1.00
C361   C     0.48190   0.58380   0.51780   0.12419  Uani   1.00
H362   H     0.49600   0.55390   0.50560   0.14900  Uiso   1.00
C363   C     0.25700   0.84740   0.49999   0.14440  Uani   1.00
H364   H     0.25320   0.84740   0.47420   0.17300  Uiso   1.00
C365   C     0.29810   0.81390   0.55410   0.14232  Uani   1.00
H366   H     0.32410   0.79150   0.56680   0.17100  Uiso   1.00
C367   C     0.47520   0.67030   0.13720   0.14553  Uani   1.00
H368   H     0.48170   0.67910   0.11260   0.17500  Uiso   1.00
C369   C     0.36650   0.76150   0.27546   0.12311  Uani   1.00
C370   C     0.47520   0.63580   0.57122   0.13237  Uani   1.00
H371   H     0.48350   0.64080   0.59650   0.15900  Uiso   1.00
C372   C     0.33200   0.79810   0.25578   0.14252  Uani   1.00
H373   H     0.30960   0.82230   0.26850   0.17100  Uiso   1.00
C374   C     0.22230   0.90830   0.15580   0.11767  Uani   1.00
C375   C     0.33080   0.79850   0.21730   0.12867  Uani   1.00
C376   C     0.18390   0.94610   0.13470   0.11171  Uani   1.00
C377   C     0.29460   0.83840   0.19563   0.12881  Uani   1.00
C378   C     0.37320   0.70920   0.37320   0.16913  Uani   1.00
H379   H     0.37610   0.67550   0.38420   0.20300  Uiso   1.00
C380   C     0.44120   0.70420   0.15820   0.15321  Uani   1.00
H381   H     0.42610   0.73540   0.14750   0.18400  Uiso   1.00
C382   C     0.37580   0.71420   0.33470   0.17802  Uani   1.00
H383   H     0.38460   0.68370   0.32110   0.21400  Uiso   1.00
C384   C     0.26130   0.87520   0.21220   0.21308  Uani   1.00
H385   H     0.26570   0.87990   0.23780   0.25600  Uiso   1.00
C386   C     0.29240   0.83790   0.15830   0.17877  Uani   1.00
H387   H     0.31500   0.81380   0.14560   0.21500  Uiso   1.00
C388   C     0.25680   0.87320   0.13850   0.16765  Uani   1.00
H389   H     0.25650   0.87280   0.11270   0.20100  Uiso   1.00
C390   C     0.36200   0.80180   0.37600   0.19679  Uani   1.00
H391   H     0.35730   0.83290   0.39000   0.23600  Uiso   1.00
C392   C     0.36400   0.80600   0.33860   0.22848  Uani   1.00
H393   H     0.36350   0.83960   0.32730   0.27400  Uiso   1.00
C394   C     0.22060   0.90620   0.19250   0.18798  Uani   1.00
H395   H     0.19280   0.92510   0.20490   0.22600  Uiso   1.00
In396  In    0.10956   0.98396   0.60420   0.07632  Uani   1.00
O397   O     0.65280   0.44720   0.55963   0.11808  Uani   1.00
O398   O     0.65350   0.47820   0.15255   0.11956  Uani   1.00
O399   O     0.68560   0.41700   0.61094   0.13065  Uani   1.00
O400   O     0.05850   0.01683   0.55719   0.11701  Uani   1.00
O401   O     0.04140   0.09420   0.09760   0.13307  Uani   1.00
O402   O     0.06480   0.05430   0.14799   0.11686  Uani   1.00
O403   O     0.04370   0.05610   0.60838   0.13109  Uani   1.00
O404   O     0.67970   0.44610   0.10038   0.12503  Uani   1.00
N405   N     0.86320   0.24080   0.51263   0.09859  Uani   1.00
N406   N     0.86270   0.26480   0.19775   0.12175  Uani   1.00
C407   C     0.94730   0.12010   0.49848   0.12152  Uani   1.00
H408   H     0.93640   0.11300   0.47380   0.14600  Uiso   1.00
C409   C     0.89480   0.20670   0.49319   0.09703  Uani   1.00
C410   C     0.98810   0.11380   0.18856   0.11189  Uani   1.00
H411   H     0.00470   0.08350   0.19970   0.13400  Uiso   1.00
C412   C     0.72590   0.38100   0.55736   0.09728  Uani   1.00
C413   C     0.89660   0.20970   0.45477   0.10126  Uani   1.00
H414   H     0.91930   0.18580   0.44200   0.12100  Uiso   1.00
C415   C     0.92850   0.16630   0.51454   0.09341  Uani   1.00
C416   C     0.89600   0.22920   0.21655   0.11747  Uani   1.00
C417   C     0.99890   0.12500   0.15201   0.09088  Uani   1.00
C418   C     0.03400   0.05310   0.57466   0.09431  Uani   1.00
C419   C     0.99530   0.09150   0.55433   0.09376  Uani   1.00
C420   C     0.83200   0.27830   0.49407   0.09759  Uani   1.00
C421   C     0.83240   0.28380   0.45560   0.10879  Uani   1.00
H422   H     0.81140   0.31090   0.44360   0.13100  Uiso   1.00
C423   C     0.89760   0.22680   0.25529   0.12381  Uani   1.00
H424   H     0.92030   0.20110   0.26750   0.14900  Uiso   1.00
C425   C     0.95390   0.14600   0.20872   0.11669  Uani   1.00
H426   H     0.94640   0.13650   0.23300   0.14000  Uiso   1.00
C427   C     0.86660   0.25280   0.39433   0.11399  Uani   1.00
C428   C     0.86680   0.25850   0.31677   0.12876  Uani   1.00
C429   C     0.86460   0.24810   0.43542   0.10843  Uani   1.00
C430   C     0.03610   0.08950   0.13120   0.09489  Uani   1.00
C431   C     0.94270   0.17370   0.55191   0.13188  Uani   1.00
H432   H     0.93030   0.20430   0.56400   0.15800  Uiso   1.00
C433   C     0.72310   0.38160   0.51920   0.14074  Uani   1.00
H434   H     0.69830   0.40510   0.50650   0.16900  Uiso   1.00
C435   C     0.68720   0.41670   0.57710   0.10210  Uani   1.00
C436   C     0.79520   0.31410   0.51628   0.10101  Uani   1.00
C437   C     0.92990   0.19250   0.19371   0.10489  Uani   1.00
C438   C     0.76240   0.34660   0.57360   0.15256  Uani   1.00
H439   H     0.76410   0.34460   0.59940   0.18300  Uiso   1.00
C440   C     0.98190   0.08380   0.51780   0.12419  Uani   1.00
H441   H     0.99600   0.05390   0.50560   0.14900  Uiso   1.00
C442   C     0.75700   0.34740   0.49999   0.14440  Uani   1.00
H443   H     0.75320   0.34740   0.47420   0.17300  Uiso   1.00
C444   C     0.79810   0.31390   0.55410   0.14232  Uani   1.00
H445   H     0.82410   0.29150   0.56680   0.17100  Uiso   1.00
C446   C     0.97520   0.17030   0.13720   0.14553  Uani   1.00
H447   H     0.98170   0.17910   0.11260   0.17500  Uiso   1.00
C448   C     0.86650   0.26150   0.27546   0.12311  Uani   1.00
C449   C     0.97520   0.13580   0.57122   0.13237  Uani   1.00
H450   H     0.98350   0.14080   0.59650   0.15900  Uiso   1.00
C451   C     0.83200   0.29810   0.25578   0.14252  Uani   1.00
H452   H     0.80960   0.32230   0.26850   0.17100  Uiso   1.00
C453   C     0.72230   0.40830   0.15580   0.11767  Uani   1.00
C454   C     0.83080   0.29850   0.21730   0.12867  Uani   1.00
C455   C     0.68390   0.44610   0.13470   0.11171  Uani   1.00
C456   C     0.79460   0.33840   0.19563   0.12881  Uani   1.00
C457   C     0.87320   0.20920   0.37320   0.16913  Uani   1.00
H458   H     0.87610   0.17550   0.38420   0.20300  Uiso   1.00
C459   C     0.94120   0.20420   0.15820   0.15321  Uani   1.00
H460   H     0.92610   0.23540   0.14750   0.18400  Uiso   1.00
C461   C     0.87580   0.21420   0.33470   0.17802  Uani   1.00
H462   H     0.88460   0.18370   0.32110   0.21400  Uiso   1.00
C463   C     0.76130   0.37520   0.21220   0.21308  Uani   1.00
H464   H     0.76570   0.37990   0.23780   0.25600  Uiso   1.00
C465   C     0.79240   0.33790   0.15830   0.17877  Uani   1.00
H466   H     0.81500   0.31380   0.14560   0.21500  Uiso   1.00
C467   C     0.75680   0.37320   0.13850   0.16765  Uani   1.00
H468   H     0.75650   0.37280   0.11270   0.20100  Uiso   1.00
C469   C     0.86200   0.30180   0.37600   0.19679  Uani   1.00
H470   H     0.85730   0.33290   0.39000   0.23600  Uiso   1.00
C471   C     0.86400   0.30600   0.33860   0.22848  Uani   1.00
H472   H     0.86350   0.33960   0.32730   0.27400  Uiso   1.00
C473   C     0.72060   0.40620   0.19250   0.18798  Uani   1.00
H474   H     0.69280   0.42510   0.20490   0.22600  Uiso   1.00
In475  In    0.39044   0.48396   0.89580   0.07632  Uani   1.00
O476   O     0.84720   0.94720   0.94037   0.11808  Uani   1.00
O477   O     0.84650   0.97820   0.34745   0.11956  Uani   1.00
O478   O     0.81440   0.91700   0.88906   0.13065  Uani   1.00
O479   O     0.44150   0.51683   0.94281   0.11701  Uani   1.00
O480   O     0.45860   0.59420   0.40240   0.13307  Uani   1.00
O481   O     0.43520   0.55430   0.35201   0.11686  Uani   1.00
O482   O     0.45630   0.55610   0.89162   0.13109  Uani   1.00
O483   O     0.82030   0.94610   0.39962   0.12503  Uani   1.00
N484   N     0.63680   0.74080   0.98737   0.09859  Uani   1.00
N485   N     0.63730   0.76480   0.30225   0.12175  Uani   1.00
C486   C     0.55270   0.62010   0.00152   0.12152  Uani   1.00
H487   H     0.56360   0.61300   0.02620   0.14600  Uiso   1.00
C488   C     0.60520   0.70670   0.00681   0.09703  Uani   1.00
C489   C     0.51190   0.61380   0.31144   0.11189  Uani   1.00
H490   H     0.49530   0.58350   0.30030   0.13400  Uiso   1.00
C491   C     0.77410   0.88100   0.94264   0.09728  Uani   1.00
C492   C     0.60340   0.70970   0.04523   0.10126  Uani   1.00
H493   H     0.58070   0.68580   0.05800   0.12100  Uiso   1.00
C494   C     0.57150   0.66630   0.98546   0.09341  Uani   1.00
C495   C     0.60400   0.72920   0.28345   0.11747  Uani   1.00
C496   C     0.50110   0.62500   0.34799   0.09088  Uani   1.00
C497   C     0.46600   0.55310   0.92534   0.09431  Uani   1.00
C498   C     0.50470   0.59150   0.94567   0.09376  Uani   1.00
C499   C     0.66800   0.77830   0.00593   0.09759  Uani   1.00
C500   C     0.66760   0.78380   0.04440   0.10879  Uani   1.00
H501   H     0.68860   0.81090   0.05640   0.13100  Uiso   1.00
C502   C     0.60240   0.72680   0.24471   0.12381  Uani   1.00
H503   H     0.57970   0.70110   0.23250   0.14900  Uiso   1.00
C504   C     0.54610   0.64600   0.29128   0.11669  Uani   1.00
H505   H     0.55360   0.63650   0.26700   0.14000  Uiso   1.00
C506   C     0.63340   0.75280   0.10567   0.11399  Uani   1.00
C507   C     0.63320   0.75850   0.18323   0.12876  Uani   1.00
C508   C     0.63540   0.74810   0.06458   0.10843  Uani   1.00
C509   C     0.46390   0.58950   0.36880   0.09489  Uani   1.00
C510   C     0.55730   0.67370   0.94809   0.13188  Uani   1.00
H511   H     0.56970   0.70430   0.93600   0.15800  Uiso   1.00
C512   C     0.77690   0.88160   0.98080   0.14074  Uani   1.00
H513   H     0.80170   0.90510   0.99350   0.16900  Uiso   1.00
C514   C     0.81280   0.91670   0.92290   0.10210  Uani   1.00
C515   C     0.70480   0.81410   0.98372   0.10101  Uani   1.00
C516   C     0.57010   0.69250   0.30629   0.10489  Uani   1.00
C517   C     0.73760   0.84660   0.92640   0.15256  Uani   1.00
H518   H     0.73590   0.84460   0.90060   0.18300  Uiso   1.00
C519   C     0.51810   0.58380   0.98220   0.12419  Uani   1.00
H520   H     0.50400   0.55390   0.99440   0.14900  Uiso   1.00
C521   C     0.74300   0.84740   0.00001   0.14440  Uani   1.00
H522   H     0.74680   0.84740   0.02580   0.17300  Uiso   1.00
C523   C     0.70190   0.81390   0.94590   0.14232  Uani   1.00
H524   H     0.67590   0.79150   0.93320   0.17100  Uiso   1.00
C525   C     0.52480   0.67030   0.36280   0.14553  Uani   1.00
H526   H     0.51830   0.67910   0.38740   0.17500  Uiso   1.00
C527   C     0.63350   0.76150   0.22454   0.12311  Uani   1.00
C528   C     0.52480   0.63580   0.92878   0.13237  Uani   1.00
H529   H     0.51650   0.64080   0.90350   0.15900  Uiso   1.00
C530   C     0.66800   0.79810   0.24422   0.14252  Uani   1.00
H531   H     0.69040   0.82230   0.23150   0.17100  Uiso   1.00
C532   C     0.77770   0.90830   0.34420   0.11767  Uani   1.00
C533   C     0.66920   0.79850   0.28270   0.12867  Uani   1.00
C534   C     0.81610   0.94610   0.36530   0.11171  Uani   1.00
C535   C     0.70540   0.83840   0.30437   0.12881  Uani   1.00
C536   C     0.62680   0.70920   0.12680   0.16913  Uani   1.00
H537   H     0.62390   0.67550   0.11580   0.20300  Uiso   1.00
C538   C     0.55880   0.70420   0.34180   0.15321  Uani   1.00
H539   H     0.57390   0.73540   0.35250   0.18400  Uiso   1.00
C540   C     0.62420   0.71420   0.16530   0.17802  Uani   1.00
H541   H     0.61540   0.68370   0.17890   0.21400  Uiso   1.00
C542   C     0.73870   0.87520   0.28780   0.21308  Uani   1.00
H543   H     0.73430   0.87990   0.26220   0.25600  Uiso   1.00
C544   C     0.70760   0.83790   0.34170   0.17877  Uani   1.00
H545   H     0.68500   0.81380   0.35440   0.21500  Uiso   1.00
C546   C     0.74320   0.87320   0.36150   0.16765  Uani   1.00
H547   H     0.74350   0.87280   0.38730   0.20100  Uiso   1.00
C548   C     0.63800   0.80180   0.12400   0.19679  Uani   1.00
H549   H     0.64270   0.83290   0.11000   0.23600  Uiso   1.00
C550   C     0.63600   0.80600   0.16140   0.22848  Uani   1.00
H551   H     0.63650   0.83960   0.17270   0.27400  Uiso   1.00
C552   C     0.77940   0.90620   0.30750   0.18798  Uani   1.00
H553   H     0.80720   0.92510   0.29510   0.22600  Uiso   1.00
In554  In    0.89044   0.98396   0.89580   0.07632  Uani   1.00
O555   O     0.34720   0.44720   0.94037   0.11808  Uani   1.00
O556   O     0.34650   0.47820   0.34745   0.11956  Uani   1.00
O557   O     0.31440   0.41700   0.88906   0.13065  Uani   1.00
O558   O     0.94150   0.01683   0.94281   0.11701  Uani   1.00
O559   O     0.95860   0.09420   0.40240   0.13307  Uani   1.00
O560   O     0.93520   0.05430   0.35201   0.11686  Uani   1.00
O561   O     0.95630   0.05610   0.89162   0.13109  Uani   1.00
O562   O     0.32030   0.44610   0.39962   0.12503  Uani   1.00
N563   N     0.13680   0.24080   0.98737   0.09859  Uani   1.00
N564   N     0.13730   0.26480   0.30225   0.12175  Uani   1.00
C565   C     0.05270   0.12010   0.00152   0.12152  Uani   1.00
H566   H     0.06360   0.11300   0.02620   0.14600  Uiso   1.00
C567   C     0.10520   0.20670   0.00681   0.09703  Uani   1.00
C568   C     0.01190   0.11380   0.31144   0.11189  Uani   1.00
H569   H     0.99530   0.08350   0.30030   0.13400  Uiso   1.00
C570   C     0.27410   0.38100   0.94264   0.09728  Uani   1.00
C571   C     0.10340   0.20970   0.04523   0.10126  Uani   1.00
H572   H     0.08070   0.18580   0.05800   0.12100  Uiso   1.00
C573   C     0.07150   0.16630   0.98546   0.09341  Uani   1.00
C574   C     0.10400   0.22920   0.28345   0.11747  Uani   1.00
C575   C     0.00110   0.12500   0.34799   0.09088  Uani   1.00
C576   C     0.96600   0.05310   0.92534   0.09431  Uani   1.00
C577   C     0.00470   0.09150   0.94567   0.09376  Uani   1.00
C578   C     0.16800   0.27830   0.00593   0.09759  Uani   1.00
C579   C     0.16760   0.28380   0.04440   0.10879  Uani   1.00
H580   H     0.18860   0.31090   0.05640   0.13100  Uiso   1.00
C581   C     0.10240   0.22680   0.24471   0.12381  Uani   1.00
H582   H     0.07970   0.20110   0.23250   0.14900  Uiso   1.00
C583   C     0.04610   0.14600   0.29128   0.11669  Uani   1.00
H584   H     0.05360   0.13650   0.26700   0.14000  Uiso   1.00
C585   C     0.13340   0.25280   0.10567   0.11399  Uani   1.00
C586   C     0.13320   0.25850   0.18323   0.12876  Uani   1.00
C587   C     0.13540   0.24810   0.06458   0.10843  Uani   1.00
C588   C     0.96390   0.08950   0.36880   0.09489  Uani   1.00
C589   C     0.05730   0.17370   0.94809   0.13188  Uani   1.00
H590   H     0.06970   0.20430   0.93600   0.15800  Uiso   1.00
C591   C     0.27690   0.38160   0.98080   0.14074  Uani   1.00
H592   H     0.30170   0.40510   0.99350   0.16900  Uiso   1.00
C593   C     0.31280   0.41670   0.92290   0.10210  Uani   1.00
C594   C     0.20480   0.31410   0.98372   0.10101  Uani   1.00
C595   C     0.07010   0.19250   0.30629   0.10489  Uani   1.00
C596   C     0.23760   0.34660   0.92640   0.15256  Uani   1.00
H597   H     0.23590   0.34460   0.90060   0.18300  Uiso   1.00
C598   C     0.01810   0.08380   0.98220   0.12419  Uani   1.00
H599   H     0.00400   0.05390   0.99440   0.14900  Uiso   1.00
C600   C     0.24300   0.34740   0.00001   0.14440  Uani   1.00
H601   H     0.24680   0.34740   0.02580   0.17300  Uiso   1.00
C602   C     0.20190   0.31390   0.94590   0.14232  Uani   1.00
H603   H     0.17590   0.29150   0.93320   0.17100  Uiso   1.00
C604   C     0.02480   0.17030   0.36280   0.14553  Uani   1.00
H605   H     0.01830   0.17910   0.38740   0.17500  Uiso   1.00
C606   C     0.13350   0.26150   0.22454   0.12311  Uani   1.00
C607   C     0.02480   0.13580   0.92878   0.13237  Uani   1.00
H608   H     0.01650   0.14080   0.90350   0.15900  Uiso   1.00
C609   C     0.16800   0.29810   0.24422   0.14252  Uani   1.00
H610   H     0.19040   0.32230   0.23150   0.17100  Uiso   1.00
C611   C     0.27770   0.40830   0.34420   0.11767  Uani   1.00
C612   C     0.16920   0.29850   0.28270   0.12867  Uani   1.00
C613   C     0.31610   0.44610   0.36530   0.11171  Uani   1.00
C614   C     0.20540   0.33840   0.30437   0.12881  Uani   1.00
C615   C     0.12680   0.20920   0.12680   0.16913  Uani   1.00
H616   H     0.12390   0.17550   0.11580   0.20300  Uiso   1.00
C617   C     0.05880   0.20420   0.34180   0.15321  Uani   1.00
H618   H     0.07390   0.23540   0.35250   0.18400  Uiso   1.00
C619   C     0.12420   0.21420   0.16530   0.17802  Uani   1.00
H620   H     0.11540   0.18370   0.17890   0.21400  Uiso   1.00
C621   C     0.23870   0.37520   0.28780   0.21308  Uani   1.00
H622   H     0.23430   0.37990   0.26220   0.25600  Uiso   1.00
C623   C     0.20760   0.33790   0.34170   0.17877  Uani   1.00
H624   H     0.18500   0.31380   0.35440   0.21500  Uiso   1.00
C625   C     0.24320   0.37320   0.36150   0.16765  Uani   1.00
H626   H     0.24350   0.37280   0.38730   0.20100  Uiso   1.00
C627   C     0.13800   0.30180   0.12400   0.19679  Uani   1.00
H628   H     0.14270   0.33290   0.11000   0.23600  Uiso   1.00
C629   C     0.13600   0.30600   0.16140   0.22848  Uani   1.00
H630   H     0.13650   0.33960   0.17270   0.27400  Uiso   1.00
C631   C     0.27940   0.40620   0.30750   0.18798  Uani   1.00
H632   H     0.30720   0.42510   0.29510   0.22600  Uiso   1.00
loop_
_atom_site_aniso_label
_atom_site_aniso_U_11
_atom_site_aniso_U_22
_atom_site_aniso_U_33
_atom_site_aniso_U_12
_atom_site_aniso_U_13
_atom_site_aniso_U_23
In1       0.08890   0.07540   0.06490   0.00346   0.00608  -0.00316
O2        0.10800   0.12300   0.12400   0.03900   0.01400  -0.03500
O3        0.12900   0.11300   0.11500   0.03700  -0.01500   0.01100
O4        0.15900   0.11800   0.11800   0.04000   0.04200   0.00100
O5        0.14100   0.10200   0.10600   0.04600  -0.01900  -0.00000
O6        0.16000   0.12800   0.11400   0.02300   0.03900  -0.01100
O7        0.12500   0.11500   0.11200   0.03400   0.02200  -0.00800
O8        0.15900   0.13900   0.09500   0.06100   0.00200   0.01000
O9        0.14100   0.12700   0.10700   0.03400   0.00400   0.02400
N10       0.11300   0.09500   0.08800   0.03900   0.00700  -0.00600
N11       0.14400   0.12800   0.09300   0.06400   0.00200   0.00700
C12       0.16500   0.10400   0.09300   0.05600  -0.02500  -0.01700
C14       0.11300   0.09100   0.08700   0.03900   0.00300  -0.00700
C15       0.13900   0.09800   0.10000   0.03900   0.02100   0.00500
C17       0.09500   0.09500   0.10300   0.02300   0.01800  -0.00900
C18       0.12200   0.09500   0.08700   0.04800   0.00700  -0.00300
C20       0.10700   0.09300   0.08000   0.03400   0.00100  -0.00100
C21       0.15000   0.11800   0.08500   0.06000   0.01200   0.01000
C22       0.09700   0.08600   0.09100   0.00600   0.02000  -0.00900
C23       0.09300   0.09400   0.09500   0.01100  -0.00700   0.00800
C24       0.10000   0.08000   0.10100   0.02600   0.00100   0.00500
C25       0.10800   0.09600   0.08900   0.03900   0.00700  -0.00400
C26       0.12900   0.11200   0.08600   0.05900   0.01200   0.00300
C28       0.15900   0.12900   0.08400   0.07600   0.01200   0.01400
C30       0.15600   0.10500   0.09100   0.04300   0.02800   0.00800
C32       0.14500   0.11300   0.08500   0.06100   0.01700   0.00500
C33       0.17900   0.12600   0.08200   0.08400   0.01400   0.01200
C34       0.13900   0.10900   0.07800   0.04700   0.01300   0.00100
C35       0.09600   0.08700   0.10300  -0.00900   0.02000  -0.02000
C36       0.18000   0.12600   0.08900   0.07800  -0.00200  -0.01000
C38       0.16300   0.15500   0.10400   0.09200   0.00300  -0.01200
C40       0.10500   0.08600   0.11700   0.01100   0.02500  -0.02000
C41       0.11300   0.09400   0.09700   0.03800   0.01600  -0.00600
C42       0.11700   0.11600   0.08200   0.04700   0.00800   0.00600
C43       0.20500   0.16100   0.09400   0.10300   0.03400   0.00300
C45       0.16500   0.10000   0.10500   0.05400  -0.02500  -0.01900
C47       0.16200   0.18300   0.08800   0.10300   0.00300  -0.01500
C49       0.17800   0.15400   0.09700   0.09100   0.03000   0.01300
C51       0.21300   0.14400   0.08200   0.08100   0.03500   0.01300
C53       0.15400   0.13100   0.08500   0.06800   0.01300   0.00800
C54       0.17400   0.14000   0.08200   0.06900  -0.00800  -0.00200
C56       0.18700   0.15200   0.09000   0.09500   0.02300   0.01200
C58       0.12900   0.11000   0.11300   0.02900  -0.00700   0.02100
C59       0.15700   0.13400   0.09500   0.06900   0.00500   0.01400
C60       0.10200   0.12100   0.11100   0.00500  -0.00900   0.03600
C61       0.15600   0.13600   0.09400   0.06800  -0.00000   0.01300
C62       0.26300   0.13900   0.10800   0.10800   0.03900   0.01300
C64       0.22100   0.14700   0.09300   0.09800   0.02300   0.02200
C66       0.27500   0.16100   0.09900   0.13100   0.01900   0.00200
C68       0.31200   0.22200   0.10300   0.17800  -0.01800  -0.00300
C70       0.23300   0.20600   0.09900   0.14400   0.02700   0.03600
C72       0.21200   0.19200   0.09900   0.10500   0.00700   0.02000
C74       0.34900   0.14300   0.10000   0.12800   0.02900   0.00700
C76       0.40500   0.17900   0.10600   0.18100   0.06500   0.03600
C78       0.23400   0.21500   0.11600   0.13300   0.02000   0.01900
In80      0.08890   0.07540   0.06490   0.00346   0.00608  -0.00316
O81       0.10800   0.12300   0.12400   0.03900   0.01400  -0.03500
O82       0.12900   0.11300   0.11500   0.03700  -0.01500   0.01100
O83       0.15900   0.11800   0.11800   0.04000   0.04200   0.00100
O84       0.14100   0.10200   0.10600   0.04600  -0.01900  -0.00000
O85       0.16000   0.12800   0.11400   0.02300   0.03900  -0.01100
O86       0.12500   0.11500   0.11200   0.03400   0.02200  -0.00800
O87       0.15900   0.13900   0.09500   0.06100   0.00200   0.01000
O88       0.14100   0.12700   0.10700   0.03400   0.00400   0.02400
N89       0.11300   0.09500   0.08800   0.03900   0.00700  -0.00600
N90       0.14400   0.12800   0.09300   0.06400   0.00200   0.00700
C91       0.16500   0.10400   0.09300   0.05600  -0.02500  -0.01700
C93       0.11300   0.09100   0.08700   0.03900   0.00300  -0.00700
C94       0.13900   0.09800   0.10000   0.03900   0.02100   0.00500
C96       0.09500   0.09500   0.10300   0.02300   0.01800  -0.00900
C97       0.12200   0.09500   0.08700   0.04800   0.00700  -0.00300
C99       0.10700   0.09300   0.08000   0.03400   0.00100  -0.00100
C100      0.15000   0.11800   0.08500   0.06000   0.01200   0.01000
C101      0.09700   0.08600   0.09100   0.00600   0.02000  -0.00900
C102      0.09300   0.09400   0.09500   0.01100  -0.00700   0.00800
C103      0.10000   0.08000   0.10100   0.02600   0.00100   0.00500
C104      0.10800   0.09600   0.08900   0.03900   0.00700  -0.00400
C105      0.12900   0.11200   0.08600   0.05900   0.01200   0.00300
C107      0.15900   0.12900   0.08400   0.07600   0.01200   0.01400
C109      0.15600   0.10500   0.09100   0.04300   0.02800   0.00800
C111      0.14500   0.11300   0.08500   0.06100   0.01700   0.00500
C112      0.17900   0.12600   0.08200   0.08400   0.01400   0.01200
C113      0.13900   0.10900   0.07800   0.04700   0.01300   0.00100
C114      0.09600   0.08700   0.10300  -0.00900   0.02000  -0.02000
C115      0.18000   0.12600   0.08900   0.07800  -0.00200  -0.01000
C117      0.16300   0.15500   0.10400   0.09200   0.00300  -0.01200
C119      0.10500   0.08600   0.11700   0.01100   0.02500  -0.02000
C120      0.11300   0.09400   0.09700   0.03800   0.01600  -0.00600
C121      0.11700   0.11600   0.08200   0.04700   0.00800   0.00600
C122      0.20500   0.16100   0.09400   0.10300   0.03400   0.00300
C124      0.16500   0.10000   0.10500   0.05400  -0.02500  -0.01900
C126      0.16200   0.18300   0.08800   0.10300   0.00300  -0.01500
C128      0.17800   0.15400   0.09700   0.09100   0.03000   0.01300
C130      0.21300   0.14400   0.08200   0.08100   0.03500   0.01300
C132      0.15400   0.13100   0.08500   0.06800   0.01300   0.00800
C133      0.17400   0.14000   0.08200   0.06900  -0.00800  -0.00200
C135      0.18700   0.15200   0.09000   0.09500   0.02300   0.01200
C137      0.12900   0.11000   0.11300   0.02900  -0.00700   0.02100
C138      0.15700   0.13400   0.09500   0.06900   0.00500   0.01400
C139      0.10200   0.12100   0.11100   0.00500  -0.00900   0.03600
C140      0.15600   0.13600   0.09400   0.06800  -0.00000   0.01300
C141      0.26300   0.13900   0.10800   0.10800   0.03900   0.01300
C143      0.22100   0.14700   0.09300   0.09800   0.02300   0.02200
C145      0.27500   0.16100   0.09900   0.13100   0.01900   0.00200
C147      0.31200   0.22200   0.10300   0.17800  -0.01800  -0.00300
C149      0.23300   0.20600   0.09900   0.14400   0.02700   0.03600
C151      0.21200   0.19200   0.09900   0.10500   0.00700   0.02000
C153      0.34900   0.14300   0.10000   0.12800   0.02900   0.00700
C155      0.40500   0.17900   0.10600   0.18100   0.06500   0.03600
C157      0.23400   0.21500   0.11600   0.13300   0.02000   0.01900
In159     0.08890   0.07540   0.06490  -0.00346   0.00608   0.00316
O160      0.10800   0.12300   0.12400  -0.03900   0.01400   0.03500
O161      0.12900   0.11300   0.11500  -0.03700  -0.01500  -0.01100
O162      0.15900   0.11800   0.11800  -0.04000   0.04200  -0.00100
O163      0.14100   0.10200   0.10600  -0.04600  -0.01900   0.00000
O164      0.16000   0.12800   0.11400  -0.02300   0.03900   0.01100
O165      0.12500   0.11500   0.11200  -0.03400   0.02200   0.00800
O166      0.15900   0.13900   0.09500  -0.06100   0.00200  -0.01000
O167      0.14100   0.12700   0.10700  -0.03400   0.00400  -0.02400
N168      0.11300   0.09500   0.08800  -0.03900   0.00700   0.00600
N169      0.14400   0.12800   0.09300  -0.06400   0.00200  -0.00700
C170      0.16500   0.10400   0.09300  -0.05600  -0.02500   0.01700
C172      0.11300   0.09100   0.08700  -0.03900   0.00300   0.00700
C173      0.13900   0.09800   0.10000  -0.03900   0.02100  -0.00500
C175      0.09500   0.09500   0.10300  -0.02300   0.01800   0.00900
C176      0.12200   0.09500   0.08700  -0.04800   0.00700   0.00300
C178      0.10700   0.09300   0.08000  -0.03400   0.00100   0.00100
C179      0.15000   0.11800   0.08500  -0.06000   0.01200  -0.01000
C180      0.09700   0.08600   0.09100  -0.00600   0.02000   0.00900
C181      0.09300   0.09400   0.09500  -0.01100  -0.00700  -0.00800
C182      0.10000   0.08000   0.10100  -0.02600   0.00100  -0.00500
C183      0.10800   0.09600   0.08900  -0.03900   0.00700   0.00400
C184      0.12900   0.11200   0.08600  -0.05900   0.01200  -0.00300
C186      0.15900   0.12900   0.08400  -0.07600   0.01200  -0.01400
C188      0.15600   0.10500   0.09100  -0.04300   0.02800  -0.00800
C190      0.14500   0.11300   0.08500  -0.06100   0.01700  -0.00500
C191      0.17900   0.12600   0.08200  -0.08400   0.01400  -0.01200
C192      0.13900   0.10900   0.07800  -0.04700   0.01300  -0.00100
C193      0.09600   0.08700   0.10300   0.00900   0.02000   0.02000
C194      0.18000   0.12600   0.08900  -0.07800  -0.00200   0.01000
C196      0.16300   0.15500   0.10400  -0.09200   0.00300   0.01200
C198      0.10500   0.08600   0.11700  -0.01100   0.02500   0.02000
C199      0.11300   0.09400   0.09700  -0.03800   0.01600   0.00600
C200      0.11700   0.11600   0.08200  -0.04700   0.00800  -0.00600
C201      0.20500   0.16100   0.09400  -0.10300   0.03400  -0.00300
C203      0.16500   0.10000   0.10500  -0.05400  -0.02500   0.01900
C205      0.16200   0.18300   0.08800  -0.10300   0.00300   0.01500
C207      0.17800   0.15400   0.09700  -0.09100   0.03000  -0.01300
C209      0.21300   0.14400   0.08200  -0.08100   0.03500  -0.01300
C211      0.15400   0.13100   0.08500  -0.06800   0.01300  -0.00800
C212      0.17400   0.14000   0.08200  -0.06900  -0.00800   0.00200
C214      0.18700   0.15200   0.09000  -0.09500   0.02300  -0.01200
C216      0.12900   0.11000   0.11300  -0.02900  -0.00700  -0.02100
C217      0.15700   0.13400   0.09500  -0.06900   0.00500  -0.01400
C218      0.10200   0.12100   0.11100  -0.00500  -0.00900  -0.03600
C219      0.15600   0.13600   0.09400  -0.06800  -0.00000  -0.01300
C220      0.26300   0.13900   0.10800  -0.10800   0.03900  -0.01300
C222      0.22100   0.14700   0.09300  -0.09800   0.02300  -0.02200
C224      0.27500   0.16100   0.09900  -0.13100   0.01900  -0.00200
C226      0.31200   0.22200   0.10300  -0.17800  -0.01800   0.00300
C228      0.23300   0.20600   0.09900  -0.14400   0.02700  -0.03600
C230      0.21200   0.19200   0.09900  -0.10500   0.00700  -0.02000
C232      0.34900   0.14300   0.10000  -0.12800   0.02900  -0.00700
C234      0.40500   0.17900   0.10600  -0.18100   0.06500  -0.03600
C236      0.23400   0.21500   0.11600  -0.13300   0.02000  -0.01900
In238     0.08890   0.07540   0.06490  -0.00346   0.00608   0.00316
O239      0.10800   0.12300   0.12400  -0.03900   0.01400   0.03500
O240      0.12900   0.11300   0.11500  -0.03700  -0.01500  -0.01100
O241      0.15900   0.11800   0.11800  -0.04000   0.04200  -0.00100
O242      0.14100   0.10200   0.10600  -0.04600  -0.01900   0.00000
O243      0.16000   0.12800   0.11400  -0.02300   0.03900   0.01100
O244      0.12500   0.11500   0.11200  -0.03400   0.02200   0.00800
O245      0.15900   0.13900   0.09500  -0.06100   0.00200  -0.01000
O246      0.14100   0.12700   0.10700  -0.03400   0.00400  -0.02400
N247      0.11300   0.09500   0.08800  -0.03900   0.00700   0.00600
N248      0.14400   0.12800   0.09300  -0.06400   0.00200  -0.00700
C249      0.16500   0.10400   0.09300  -0.05600  -0.02500   0.01700
C251      0.11300   0.09100   0.08700  -0.03900   0.00300   0.00700
C252      0.13900   0.09800   0.10000  -0.03900   0.02100  -0.00500
C254      0.09500   0.09500   0.10300  -0.02300   0.01800   0.00900
C255      0.12200   0.09500   0.08700  -0.04800   0.00700   0.00300
C257      0.10700   0.09300   0.08000  -0.03400   0.00100   0.00100
C258      0.15000   0.11800   0.08500  -0.06000   0.01200  -0.01000
C259      0.09700   0.08600   0.09100  -0.00600   0.02000   0.00900
C260      0.09300   0.09400   0.09500  -0.01100  -0.00700  -0.00800
C261      0.10000   0.08000   0.10100  -0.02600   0.00100  -0.00500
C262      0.10800   0.09600   0.08900  -0.03900   0.00700   0.00400
C263      0.12900   0.11200   0.08600  -0.05900   0.01200  -0.00300
C265      0.15900   0.12900   0.08400  -0.07600   0.01200  -0.01400
C267      0.15600   0.10500   0.09100  -0.04300   0.02800  -0.00800
C269      0.14500   0.11300   0.08500  -0.06100   0.01700  -0.00500
C270      0.17900   0.12600   0.08200  -0.08400   0.01400  -0.01200
C271      0.13900   0.10900   0.07800  -0.04700   0.01300  -0.00100
C272      0.09600   0.08700   0.10300   0.00900   0.02000   0.02000
C273      0.18000   0.12600   0.08900  -0.07800  -0.00200   0.01000
C275      0.16300   0.15500   0.10400  -0.09200   0.00300   0.01200
C277      0.10500   0.08600   0.11700  -0.01100   0.02500   0.02000
C278      0.11300   0.09400   0.09700  -0.03800   0.01600   0.00600
C279      0.11700   0.11600   0.08200  -0.04700   0.00800  -0.00600
C280      0.20500   0.16100   0.09400  -0.10300   0.03400  -0.00300
C282      0.16500   0.10000   0.10500  -0.05400  -0.02500   0.01900
C284      0.16200   0.18300   0.08800  -0.10300   0.00300   0.01500
C286      0.17800   0.15400   0.09700  -0.09100   0.03000  -0.01300
C288      0.21300   0.14400   0.08200  -0.08100   0.03500  -0.01300
C290      0.15400   0.13100   0.08500  -0.06800   0.01300  -0.00800
C291      0.17400   0.14000   0.08200  -0.06900  -0.00800   0.00200
C293      0.18700   0.15200   0.09000  -0.09500   0.02300  -0.01200
C295      0.12900   0.11000   0.11300  -0.02900  -0.00700  -0.02100
C296      0.15700   0.13400   0.09500  -0.06900   0.00500  -0.01400
C297      0.10200   0.12100   0.11100  -0.00500  -0.00900  -0.03600
C298      0.15600   0.13600   0.09400  -0.06800  -0.00000  -0.01300
C299      0.26300   0.13900   0.10800  -0.10800   0.03900  -0.01300
C301      0.22100   0.14700   0.09300  -0.09800   0.02300  -0.02200
C303      0.27500   0.16100   0.09900  -0.13100   0.01900  -0.00200
C305      0.31200   0.22200   0.10300  -0.17800  -0.01800   0.00300
C307      0.23300   0.20600   0.09900  -0.14400   0.02700  -0.03600
C309      0.21200   0.19200   0.09900  -0.10500   0.00700  -0.02000
C311      0.34900   0.14300   0.10000  -0.12800   0.02900  -0.00700
C313      0.40500   0.17900   0.10600  -0.18100   0.06500  -0.03600
C315      0.23400   0.21500   0.11600  -0.13300   0.02000  -0.01900
In317     0.08890   0.07540   0.06490   0.00346   0.00608  -0.00316
O318      0.10800   0.12300   0.12400   0.03900   0.01400  -0.03500
O319      0.12900   0.11300   0.11500   0.03700  -0.01500   0.01100
O320      0.15900   0.11800   0.11800   0.04000   0.04200   0.00100
O321      0.14100   0.10200   0.10600   0.04600  -0.01900  -0.00000
O322      0.16000   0.12800   0.11400   0.02300   0.03900  -0.01100
O323      0.12500   0.11500   0.11200   0.03400   0.02200  -0.00800
O324      0.15900   0.13900   0.09500   0.06100   0.00200   0.01000
O325      0.14100   0.12700   0.10700   0.03400   0.00400   0.02400
N326      0.11300   0.09500   0.08800   0.03900   0.00700  -0.00600
N327      0.14400   0.12800   0.09300   0.06400   0.00200   0.00700
C328      0.16500   0.10400   0.09300   0.05600  -0.02500  -0.01700
C330      0.11300   0.09100   0.08700   0.03900   0.00300  -0.00700
C331      0.13900   0.09800   0.10000   0.03900   0.02100   0.00500
C333      0.09500   0.09500   0.10300   0.02300   0.01800  -0.00900
C334      0.12200   0.09500   0.08700   0.04800   0.00700  -0.00300
C336      0.10700   0.09300   0.08000   0.03400   0.00100  -0.00100
C337      0.15000   0.11800   0.08500   0.06000   0.01200   0.01000
C338      0.09700   0.08600   0.09100   0.00600   0.02000  -0.00900
C339      0.09300   0.09400   0.09500   0.01100  -0.00700   0.00800
C340      0.10000   0.08000   0.10100   0.02600   0.00100   0.00500
C341      0.10800   0.09600   0.08900   0.03900   0.00700  -0.00400
C342      0.12900   0.11200   0.08600   0.05900   0.01200   0.00300
C344      0.15900   0.12900   0.08400   0.07600   0.01200   0.01400
C346      0.15600   0.10500   0.09100   0.04300   0.02800   0.00800
C348      0.14500   0.11300   0.08500   0.06100   0.01700   0.00500
C349      0.17900   0.12600   0.08200   0.08400   0.01400   0.01200
C350      0.13900   0.10900   0.07800   0.04700   0.01300   0.00100
C351      0.09600   0.08700   0.10300  -0.00900   0.02000  -0.02000
C352      0.18000   0.12600   0.08900   0.07800  -0.00200  -0.01000
C354      0.16300   0.15500   0.10400   0.09200   0.00300  -0.01200
C356      0.10500   0.08600   0.11700   0.01100   0.02500  -0.02000
C357      0.11300   0.09400   0.09700   0.03800   0.01600  -0.00600
C358      0.11700   0.11600   0.08200   0.04700   0.00800   0.00600
C359      0.20500   0.16100   0.09400   0.10300   0.03400   0.00300
C361      0.16500   0.10000   0.10500   0.05400  -0.02500  -0.01900
C363      0.16200   0.18300   0.08800   0.10300   0.00300  -0.01500
C365      0.17800   0.15400   0.09700   0.09100   0.03000   0.01300
C367      0.21300   0.14400   0.08200   0.08100   0.03500   0.01300
C369      0.15400   0.13100   0.08500   0.06800   0.01300   0.00800
C370      0.17400   0.14000   0.08200   0.06900  -0.00800  -0.00200
C372      0.18700   0.15200   0.09000   0.09500   0.02300   0.01200
C374      0.12900   0.11000   0.11300   0.02900  -0.00700   0.02100
C375      0.15700   0.13400   0.09500   0.06900   0.00500   0.01400
C376      0.10200   0.12100   0.11100   0.00500  -0.00900   0.03600
C377      0.15600   0.13600   0.09400   0.06800  -0.00000   0.01300
C378      0.26300   0.13900   0.10800   0.10800   0.03900   0.01300
C380      0.22100   0.14700   0.09300   0.09800   0.02300   0.02200
C382      0.27500   0.16100   0.09900   0.13100   0.01900   0.00200
C384      0.31200   0.22200   0.10300   0.17800  -0.01800  -0.00300
C386      0.23300   0.20600   0.09900   0.14400   0.02700   0.03600
C388      0.21200   0.19200   0.09900   0.10500   0.00700   0.02000
C390      0.34900   0.14300   0.10000   0.12800   0.02900   0.00700
C392      0.40500   0.17900   0.10600   0.18100   0.06500   0.03600
C394      0.23400   0.21500   0.11600   0.13300   0.02000   0.01900
In396     0.08890   0.07540   0.06490   0.00346   0.00608  -0.00316
O397      0.10800   0.12300   0.12400   0.03900   0.01400  -0.03500
O398      0.12900   0.11300   0.11500   0.03700  -0.01500   0.01100
O399      0.15900   0.11800   0.11800   0.04000   0.04200   0.00100
O400      0.14100   0.10200   0.10600   0.04600  -0.01900  -0.00000
O401      0.16000   0.12800   0.11400   0.02300   0.03900  -0.01100
O402      0.12500   0.11500   0.11200   0.03400   0.02200  -0.00800
O403      0.15900   0.13900   0.09500   0.06100   0.00200   0.01000
O404      0.14100   0.12700   0.10700   0.03400   0.00400   0.02400
N405      0.11300   0.09500   0.08800   0.03900   0.00700  -0.00600
N406      0.14400   0.12800   0.09300   0.06400   0.00200   0.00700
C407      0.16500   0.10400   0.09300   0.05600  -0.02500  -0.01700
C409      0.11300   0.09100   0.08700   0.03900   0.00300  -0.00700
C410      0.13900   0.09800   0.10000   0.03900   0.02100   0.00500
C412      0.09500   0.09500   0.10300   0.02300   0.01800  -0.00900
C413      0.12200   0.09500   0.08700   0.04800   0.00700  -0.00300
C415      0.10700   0.09300   0.08000   0.03400   0.00100  -0.00100
C416      0.15000   0.11800   0.08500   0.06000   0.01200   0.01000
C417      0.09700   0.08600   0.09100   0.00600   0.02000  -0.00900
C418      0.09300   0.09400   0.09500   0.01100  -0.00700   0.00800
C419      0.10000   0.08000   0.10100   0.02600   0.00100   0.00500
C420      0.10800   0.09600   0.08900   0.03900   0.00700  -0.00400
C421      0.12900   0.11200   0.08600   0.05900   0.01200   0.00300
C423      0.15900   0.12900   0.08400   0.07600   0.01200   0.01400
C425      0.15600   0.10500   0.09100   0.04300   0.02800   0.00800
C427      0.14500   0.11300   0.08500   0.06100   0.01700   0.00500
C428      0.17900   0.12600   0.08200   0.08400   0.01400   0.01200
C429      0.13900   0.10900   0.07800   0.04700   0.01300   0.00100
C430      0.09600   0.08700   0.10300  -0.00900   0.02000  -0.02000
C431      0.18000   0.12600   0.08900   0.07800  -0.00200  -0.01000
C433      0.16300   0.15500   0.10400   0.09200   0.00300  -0.01200
C435      0.10500   0.08600   0.11700   0.01100   0.02500  -0.02000
C436      0.11300   0.09400   0.09700   0.03800   0.01600  -0.00600
C437      0.11700   0.11600   0.08200   0.04700   0.00800   0.00600
C438      0.20500   0.16100   0.09400   0.10300   0.03400   0.00300
C440      0.16500   0.10000   0.10500   0.05400  -0.02500  -0.01900
C442      0.16200   0.18300   0.08800   0.10300   0.00300  -0.01500
C444      0.17800   0.15400   0.09700   0.09100   0.03000   0.01300
C446      0.21300   0.14400   0.08200   0.08100   0.03500   0.01300
C448      0.15400   0.13100   0.08500   0.06800   0.01300   0.00800
C449      0.17400   0.14000   0.08200   0.06900  -0.00800  -0.00200
C451      0.18700   0.15200   0.09000   0.09500   0.02300   0.01200
C453      0.12900   0.11000   0.11300   0.02900  -0.00700   0.02100
C454      0.15700   0.13400   0.09500   0.06900   0.00500   0.01400
C455      0.10200   0.12100   0.11100   0.00500  -0.00900   0.03600
C456      0.15600   0.13600   0.09400   0.06800  -0.00000   0.01300
C457      0.26300   0.13900   0.10800   0.10800   0.03900   0.01300
C459      0.22100   0.14700   0.09300   0.09800   0.02300   0.02200
C461      0.27500   0.16100   0.09900   0.13100   0.01900   0.00200
C463      0.31200   0.22200   0.10300   0.17800  -0.01800  -0.00300
C465      0.23300   0.20600   0.09900   0.14400   0.02700   0.03600
C467      0.21200   0.19200   0.09900   0.10500   0.00700   0.02000
C469      0.34900   0.14300   0.10000   0.12800   0.02900   0.00700
C471      0.40500   0.17900   0.10600   0.18100   0.06500   0.03600
C473      0.23400   0.21500   0.11600   0.13300   0.02000   0.01900
In475     0.08890   0.07540   0.06490  -0.00346   0.00608   0.00316
O476      0.10800   0.12300   0.12400  -0.03900   0.01400   0.03500
O477      0.12900   0.11300   0.11500  -0.03700  -0.01500  -0.01100
O478      0.15900   0.11800   0.11800  -0.04000   0.04200  -0.00100
O479      0.14100   0.10200   0.10600  -0.04600  -0.01900   0.00000
O480      0.16000   0.12800   0.11400  -0.02300   0.03900   0.01100
O481      0.12500   0.11500   0.11200  -0.03400   0.02200   0.00800
O482      0.15900   0.13900   0.09500  -0.06100   0.00200  -0.01000
O483      0.14100   0.12700   0.10700  -0.03400   0.00400  -0.02400
N484      0.11300   0.09500   0.08800  -0.03900   0.00700   0.00600
N485      0.14400   0.12800   0.09300  -0.06400   0.00200  -0.00700
C486      0.16500   0.10400   0.09300  -0.05600  -0.02500   0.01700
C488      0.11300   0.09100   0.08700  -0.03900   0.00300   0.00700
C489      0.13900   0.09800   0.10000  -0.03900   0.02100  -0.00500
C491      0.09500   0.09500   0.10300  -0.02300   0.01800   0.00900
C492      0.12200   0.09500   0.08700  -0.04800   0.00700   0.00300
C494      0.10700   0.09300   0.08000  -0.03400   0.00100   0.00100
C495      0.15000   0.11800   0.08500  -0.06000   0.01200  -0.01000
C496      0.09700   0.08600   0.09100  -0.00600   0.02000   0.00900
C497      0.09300   0.09400   0.09500  -0.01100  -0.00700  -0.00800
C498      0.10000   0.08000   0.10100  -0.02600   0.00100  -0.00500
C499      0.10800   0.09600   0.08900  -0.03900   0.00700   0.00400
C500      0.12900   0.11200   0.08600  -0.05900   0.01200  -0.00300
C502      0.15900   0.12900   0.08400  -0.07600   0.01200  -0.01400
C504      0.15600   0.10500   0.09100  -0.04300   0.02800  -0.00800
C506      0.14500   0.11300   0.08500  -0.06100   0.01700  -0.00500
C507      0.17900   0.12600   0.08200  -0.08400   0.01400  -0.01200
C508      0.13900   0.10900   0.07800  -0.04700   0.01300  -0.00100
C509      0.09600   0.08700   0.10300   0.00900   0.02000   0.02000
C510      0.18000   0.12600   0.08900  -0.07800  -0.00200   0.01000
C512      0.16300   0.15500   0.10400  -0.09200   0.00300   0.01200
C514      0.10500   0.08600   0.11700  -0.01100   0.02500   0.02000
C515      0.11300   0.09400   0.09700  -0.03800   0.01600   0.00600
C516      0.11700   0.11600   0.08200  -0.04700   0.00800  -0.00600
C517      0.20500   0.16100   0.09400  -0.10300   0.03400  -0.00300
C519      0.16500   0.10000   0.10500  -0.05400  -0.02500   0.01900
C521      0.16200   0.18300   0.08800  -0.10300   0.00300   0.01500
C523      0.17800   0.15400   0.09700  -0.09100   0.03000  -0.01300
C525      0.21300   0.14400   0.08200  -0.08100   0.03500  -0.01300
C527      0.15400   0.13100   0.08500  -0.06800   0.01300  -0.00800
C528      0.17400   0.14000   0.08200  -0.06900  -0.00800   0.00200
C530      0.18700   0.15200   0.09000  -0.09500   0.02300  -0.01200
C532      0.12900   0.11000   0.11300  -0.02900  -0.00700  -0.02100
C533      0.15700   0.13400   0.09500  -0.06900   0.00500  -0.01400
C534      0.10200   0.12100   0.11100  -0.00500  -0.00900  -0.03600
C535      0.15600   0.13600   0.09400  -0.06800  -0.00000  -0.01300
C536      0.26300   0.13900   0.10800  -0.10800   0.03900  -0.01300
C538      0.22100   0.14700   0.09300  -0.09800   0.02300  -0.02200
C540      0.27500   0.16100   0.09900  -0.13100   0.01900  -0.00200
C542      0.31200   0.22200   0.10300  -0.17800  -0.01800   0.00300
C544      0.23300   0.20600   0.09900  -0.14400   0.02700  -0.03600
C546      0.21200   0.19200   0.09900  -0.10500   0.00700  -0.02000
C548      0.34900   0.14300   0.10000  -0.12800   0.02900  -0.00700
C550      0.40500   0.17900   0.10600  -0.18100   0.06500  -0.03600
C552      0.23400   0.21500   0.11600  -0.13300   0.02000  -0.01900
In554     0.08890   0.07540   0.06490  -0.00346   0.00608   0.00316
O555      0.10800   0.12300   0.12400  -0.03900   0.01400   0.03500
O556      0.12900   0.11300   0.11500  -0.03700  -0.01500  -0.01100
O557      0.15900   0.11800   0.11800  -0.04000   0.04200  -0.00100
O558      0.14100   0.10200   0.10600  -0.04600  -0.01900   0.00000
O559      0.16000   0.12800   0.11400  -0.02300   0.03900   0.01100
O560      0.12500   0.11500   0.11200  -0.03400   0.02200   0.00800
O561      0.15900   0.13900   0.09500  -0.06100   0.00200  -0.01000
O562      0.14100   0.12700   0.10700  -0.03400   0.00400  -0.02400
N563      0.11300   0.09500   0.08800  -0.03900   0.00700   0.00600
N564      0.14400   0.12800   0.09300  -0.06400   0.00200  -0.00700
C565      0.16500   0.10400   0.09300  -0.05600  -0.02500   0.01700
C567      0.11300   0.09100   0.08700  -0.03900   0.00300   0.00700
C568      0.13900   0.09800   0.10000  -0.03900   0.02100  -0.00500
C570      0.09500   0.09500   0.10300  -0.02300   0.01800   0.00900
C571      0.12200   0.09500   0.08700  -0.04800   0.00700   0.00300
C573      0.10700   0.09300   0.08000  -0.03400   0.00100   0.00100
C574      0.15000   0.11800   0.08500  -0.06000   0.01200  -0.01000
C575      0.09700   0.08600   0.09100  -0.00600   0.02000   0.00900
C576      0.09300   0.09400   0.09500  -0.01100  -0.00700  -0.00800
C577      0.10000   0.08000   0.10100  -0.02600   0.00100  -0.00500
C578      0.10800   0.09600   0.08900  -0.03900   0.00700   0.00400
C579      0.12900   0.11200   0.08600  -0.05900   0.01200  -0.00300
C581      0.15900   0.12900   0.08400  -0.07600   0.01200  -0.01400
C583      0.15600   0.10500   0.09100  -0.04300   0.02800  -0.00800
C585      0.14500   0.11300   0.08500  -0.06100   0.01700  -0.00500
C586      0.17900   0.12600   0.08200  -0.08400   0.01400  -0.01200
C587      0.13900   0.10900   0.07800  -0.04700   0.01300  -0.00100
C588      0.09600   0.08700   0.10300   0.00900   0.02000   0.02000
C589      0.18000   0.12600   0.08900  -0.07800  -0.00200   0.01000
C591      0.16300   0.15500   0.10400  -0.09200   0.00300   0.01200
C593      0.10500   0.08600   0.11700  -0.01100   0.02500   0.02000
C594      0.11300   0.09400   0.09700  -0.03800   0.01600   0.00600
C595      0.11700   0.11600   0.08200  -0.04700   0.00800  -0.00600
C596      0.20500   0.16100   0.09400  -0.10300   0.03400  -0.00300
C598      0.16500   0.10000   0.10500  -0.05400  -0.02500   0.01900
C600      0.16200   0.18300   0.08800  -0.10300   0.00300   0.01500
C602      0.17800   0.15400   0.09700  -0.09100   0.03000  -0.01300
C604      0.21300   0.14400   0.08200  -0.08100   0.03500  -0.01300
C606      0.15400   0.13100   0.08500  -0.06800   0.01300  -0.00800
C607      0.17400   0.14000   0.08200  -0.06900  -0.00800   0.00200
C609      0.18700   0.15200   0.09000  -0.09500   0.02300  -0.01200
C611      0.12900   0.11000   0.11300  -0.02900  -0.00700  -0.02100
C612      0.15700   0.13400   0.09500  -0.06900   0.00500  -0.01400
C613      0.10200   0.12100   0.11100  -0.00500  -0.00900  -0.03600
C614      0.15600   0.13600   0.09400  -0.06800  -0.00000  -0.01300
C615      0.26300   0.13900   0.10800  -0.10800   0.03900  -0.01300
C617      0.22100   0.14700   0.09300  -0.09800   0.02300  -0.02200
C619      0.27500   0.16100   0.09900  -0.13100   0.01900  -0.00200
C621      0.31200   0.22200   0.10300  -0.17800  -0.01800   0.00300
C623      0.23300   0.20600   0.09900  -0.14400   0.02700  -0.03600
C625      0.21200   0.19200   0.09900  -0.10500   0.00700  -0.02000
C627      0.34900   0.14300   0.10000  -0.12800   0.02900  -0.00700
C629      0.40500   0.17900   0.10600  -0.18100   0.06500  -0.03600
C631      0.23400   0.21500   0.11600  -0.13300   0.02000  -0.01900
loop_
_geom_bond_atom_site_label_1
_geom_bond_atom_site_label_2
_geom_bond_distance
_geom_bond_site_symmetry_2
_ccdc_geom_bond_type
In1    O5      2.188   .     S
In1    O8      2.372   .     S
In1    O81     2.137   .     S
In1    O556    2.196   .     S
In1    O83     2.439   .     S
In1    O480    2.517   .     S
In1    O481    2.150   .     S
In1    O562    2.397   .     S
O2     C40     1.255   .     S
O2     In80    2.137   .     S
O3     C60     1.262   .     S
O3     In554   2.196   1_545 S
O4     C40     1.221   .     S
O4     In80    2.439   .     S
O5     C23     1.252   .     S
O6     C35     1.227   .     S
O6     In475   2.517   .     S
O7     C35     1.244   .     S
O7     In475   2.150   .     S
O8     C23     1.228   .     S
O9     C60     1.236   .     S
O9     In554   2.397   1_545 S
N10    C14     1.341   .     S
N10    C25     1.344   .     S
N11    C21     1.343   .     S
N11    C59     1.341   .     S
C12    H13     0.931   .     S
C12    C20     1.367   .     S
C12    C45     1.380   .     S
C14    C18     1.388   .     S
C14    C20     1.473   .     S
C15    H16     0.931   .     S
C15    C22     1.379   .     S
C15    C30     1.362   .     S
C17    C38     1.373   .     S
C17    C40     1.471   .     S
C17    C43     1.326   .     S
C18    H19     0.931   .     S
C18    C34     1.383   .     S
C20    C36     1.385   .     S
C21    C28     1.395   .     S
C21    C42     1.480   .     S
C22    C35     1.466   .     S
C22    C51     1.355   .     S
C23    C24     1.486   .     S
C24    C54     1.352   .     S
C24    C45     1.353   .     S
C25    C26     1.393   .     S
C25    C41     1.493   .     S
C26    H27     0.929   .     S
C26    C34     1.388   .     S
C28    H29     0.929   .     S
C28    C53     1.358   .     S
C30    H31     0.929   .     S
C30    C42     1.385   .     S
C32    C34     1.487   .     S
C32    C62     1.337   .     S
C32    C74     1.388   .     S
C33    C53     1.489   .     S
C33    C66     1.290   .     S
C33    C76     1.422   .     S
C36    H37     0.929   .     S
C36    C54     1.380   .     S
C38    H39     0.930   .     S
C38    C47     1.369   .     S
C41    C49     1.361   .     S
C41    C47     1.335   .     S
C42    C64     1.348   .     S
C43    H44     0.930   .     S
C43    C49     1.378   .     S
C45    H46     0.931   .     S
C47    H48     0.929   .     S
C49    H50     0.930   .     S
C51    H52     0.931   .     S
C51    C64     1.401   .     S
C53    C56     1.390   .     S
C54    H55     0.931   .     S
C56    H57     0.931   .     S
C56    C59     1.385   .     S
C58    C60     1.486   .     S
C58    C72     1.357   .     S
C58    C78     1.325   .     S
C59    C61     1.501   .     S
C61    C68     1.356   .     S
C61    C70     1.343   .     S
C62    H63     0.928   .     S
C62    C66     1.396   .     S
C64    H65     0.929   .     S
C66    H67     0.931   .     S
C68    H69     0.931   .     S
C68    C78     1.394   .     S
C70    H71     0.931   .     S
C70    C72     1.386   .     S
C72    H73     0.929   .     S
C74    H75     0.932   .     S
C74    C76     1.354   .     S
C76    H77     0.929   .     S
C78    H79     0.931   .     S
In80   O84     2.188   1_545 S
In80   O87     2.372   1_545 S
In80   O477    2.196   1_545 S
In80   O559    2.517   .     S
In80   O560    2.150   .     S
In80   O483    2.397   1_545 S
O81    C119    1.255   .     S
O82    C139    1.262   .     S
O82    In475   2.196   .     S
O83    C119    1.221   .     S
O84    In80    2.188   1_565 S
O84    C102    1.252   .     S
O85    C114    1.227   .     S
O85    In554   2.517   .     S
O86    C114    1.244   .     S
O86    In554   2.150   .     S
O87    In80    2.372   1_565 S
O87    C102    1.228   .     S
O88    C139    1.236   .     S
O88    In475   2.397   .     S
N89    C93     1.341   .     S
N89    C104    1.344   .     S
N90    C100    1.343   .     S
N90    C138    1.341   .     S
C91    H92     0.931   .     S
C91    C99     1.367   .     S
C91    C124    1.380   .     S
C93    C97     1.388   .     S
C93    C99     1.473   .     S
C94    H95     0.931   1_455 S
C94    C101    1.379   .     S
C94    C109    1.362   .     S
H95    C94     0.931   1_655 S
C96    C117    1.373   .     S
C96    C119    1.471   .     S
C96    C122    1.326   .     S
C97    H98     0.931   .     S
C97    C113    1.383   .     S
C99    C115    1.385   .     S
C100   C107    1.395   .     S
C100   C121    1.480   .     S
C101   C114    1.466   1_455 S
C101   C130    1.355   .     S
C102   C103    1.486   1_655 S
C103   C102    1.486   1_455 S
C103   C133    1.352   .     S
C103   C124    1.353   .     S
C104   C105    1.393   .     S
C104   C120    1.493   .     S
C105   H106    0.929   .     S
C105   C113    1.388   .     S
C107   H108    0.929   .     S
C107   C132    1.358   .     S
C109   H110    0.929   .     S
C109   C121    1.385   .     S
C111   C113    1.487   .     S
C111   C141    1.337   .     S
C111   C153    1.388   .     S
C112   C132    1.489   .     S
C112   C145    1.290   .     S
C112   C155    1.422   .     S
C114   C101    1.466   1_655 S
C115   H116    0.929   .     S
C115   C133    1.380   .     S
C117   H118    0.930   .     S
C117   C126    1.369   .     S
C120   C128    1.361   .     S
C120   C126    1.335   .     S
C121   C143    1.348   .     S
C122   H123    0.930   .     S
C122   C128    1.378   .     S
C124   H125    0.931   .     S
C126   H127    0.929   .     S
C128   H129    0.930   .     S
C130   H131    0.931   .     S
C130   C143    1.401   .     S
C132   C135    1.390   .     S
C133   H134    0.931   .     S
C135   H136    0.931   .     S
C135   C138    1.385   .     S
C137   C139    1.486   .     S
C137   C151    1.357   .     S
C137   C157    1.325   .     S
C138   C140    1.501   .     S
C140   C147    1.356   .     S
C140   C149    1.343   .     S
C141   H142    0.928   .     S
C141   C145    1.396   .     S
C143   H144    0.929   .     S
C145   H146    0.931   .     S
C147   H148    0.931   .     S
C147   C157    1.394   .     S
C149   H150    0.931   .     S
C149   C151    1.386   .     S
C151   H152    0.929   .     S
C153   H154    0.932   .     S
C153   C155    1.354   .     S
C155   H156    0.929   .     S
C157   H158    0.931   .     S
In159  O163    2.188   .     S
In159  O166    2.372   .     S
In159  O239    2.137   .     S
In159  O398    2.196   .     S
In159  O241    2.439   .     S
In159  O322    2.517   .     S
In159  O323    2.150   .     S
In159  O404    2.397   .     S
O160   C198    1.255   .     S
O160   In238   2.137   .     S
O161   C218    1.262   .     S
O161   In396   2.196   1_545 S
O162   C198    1.221   .     S
O162   In238   2.439   .     S
O163   C181    1.252   .     S
O164   C193    1.227   .     S
O164   In317   2.517   .     S
O165   C193    1.244   .     S
O165   In317   2.150   .     S
O166   C181    1.228   .     S
O167   C218    1.236   .     S
O167   In396   2.397   1_545 S
N168   C172    1.341   1_554 S
N168   C183    1.344   1_554 S
N169   C179    1.343   .     S
N169   C217    1.341   .     S
C170   H171    0.931   .     S
C170   C178    1.367   1_556 S
C170   C203    1.380   1_556 S
C172   N168    1.341   1_556 S
C172   C176    1.388   .     S
C172   C178    1.473   1_556 S
C173   H174    0.931   .     S
C173   C180    1.379   .     S
C173   C188    1.362   .     S
C175   C196    1.373   .     S
C175   C198    1.471   .     S
C175   C201    1.326   .     S
C176   H177    0.931   .     S
C176   C192    1.383   .     S
C178   C170    1.367   1_554 S
C178   C194    1.385   .     S
C178   C172    1.473   1_554 S
C179   C186    1.395   .     S
C179   C200    1.480   .     S
C180   C193    1.466   .     S
C180   C209    1.355   .     S
C181   C182    1.486   .     S
C182   C212    1.352   .     S
C182   C203    1.353   .     S
C183   N168    1.344   1_556 S
C183   C184    1.393   .     S
C183   C199    1.493   1_556 S
C184   H185    0.929   .     S
C184   C192    1.388   .     S
C186   H187    0.929   .     S
C186   C211    1.358   .     S
C188   H189    0.929   .     S
C188   C200    1.385   .     S
C190   C192    1.487   .     S
C190   C220    1.337   .     S
C190   C232    1.388   .     S
C191   C211    1.489   .     S
C191   C224    1.290   .     S
C191   C234    1.422   .     S
C194   H195    0.929   .     S
C194   C212    1.380   .     S
C196   H197    0.930   .     S
C196   C205    1.369   .     S
C199   C183    1.493   1_554 S
C199   C207    1.361   .     S
C199   C205    1.335   .     S
C200   C222    1.348   .     S
C201   H202    0.930   .     S
C201   C207    1.378   .     S
C203   C170    1.380   1_554 S
C203   H204    0.931   .     S
C205   H206    0.929   1_554 S
H206   C205    0.929   1_556 S
C207   H208    0.930   .     S
C209   H210    0.931   .     S
C209   C222    1.401   .     S
C211   C214    1.390   .     S
C212   H213    0.931   .     S
C214   H215    0.931   .     S
C214   C217    1.385   .     S
C216   C218    1.486   .     S
C216   C230    1.357   .     S
C216   C236    1.325   .     S
C217   C219    1.501   .     S
C219   C226    1.356   .     S
C219   C228    1.343   .     S
C220   H221    0.928   .     S
C220   C224    1.396   .     S
C222   H223    0.929   .     S
C224   H225    0.931   .     S
C226   H227    0.931   .     S
C226   C236    1.394   .     S
C228   H229    0.931   .     S
C228   C230    1.386   .     S
C230   H231    0.929   .     S
C232   H233    0.932   .     S
C232   C234    1.354   .     S
C234   H235    0.929   .     S
C236   H237    0.931   .     S
In238  O242    2.188   1_545 S
In238  O245    2.372   1_545 S
In238  O319    2.196   1_545 S
In238  O401    2.517   .     S
In238  O402    2.150   .     S
In238  O325    2.397   1_545 S
O239   C277    1.255   .     S
O240   C297    1.262   .     S
O240   In317   2.196   .     S
O241   C277    1.221   .     S
O242   In238   2.188   1_565 S
O242   C260    1.252   .     S
O243   C272    1.227   .     S
O243   In396   2.517   .     S
O244   C272    1.244   .     S
O244   In396   2.150   .     S
O245   In238   2.372   1_565 S
O245   C260    1.228   .     S
O246   C297    1.236   .     S
O246   In317   2.397   .     S
N247   C251    1.341   1_554 S
N247   C262    1.344   1_554 S
N248   C258    1.343   .     S
N248   C296    1.341   .     S
C249   H250    0.931   .     S
C249   C257    1.367   1_556 S
C249   C282    1.380   1_556 S
C251   N247    1.341   1_556 S
C251   C255    1.388   .     S
C251   C257    1.473   1_556 S
C252   H253    0.931   1_655 S
C252   C259    1.379   .     S
C252   C267    1.362   .     S
H253   C252    0.931   1_455 S
C254   C275    1.373   .     S
C254   C277    1.471   .     S
C254   C280    1.326   .     S
C255   H256    0.931   .     S
C255   C271    1.383   .     S
C257   C249    1.367   1_554 S
C257   C273    1.385   .     S
C257   C251    1.473   1_554 S
C258   C265    1.395   .     S
C258   C279    1.480   .     S
C259   C272    1.466   1_655 S
C259   C288    1.355   .     S
C260   C261    1.486   1_455 S
C261   C260    1.486   1_655 S
C261   C291    1.352   .     S
C261   C282    1.353   .     S
C262   N247    1.344   1_556 S
C262   C263    1.393   .     S
C262   C278    1.493   1_556 S
C263   H264    0.929   .     S
C263   C271    1.388   .     S
C265   H266    0.929   .     S
C265   C290    1.358   .     S
C267   H268    0.929   .     S
C267   C279    1.385   .     S
C269   C271    1.487   .     S
C269   C299    1.337   .     S
C269   C311    1.388   .     S
C270   C290    1.489   .     S
C270   C303    1.290   .     S
C270   C313    1.422   .     S
C272   C259    1.466   1_455 S
C273   H274    0.929   .     S
C273   C291    1.380   .     S
C275   H276    0.930   .     S
C275   C284    1.369   .     S
C278   C262    1.493   1_554 S
C278   C286    1.361   .     S
C278   C284    1.335   .     S
C279   C301    1.348   .     S
C280   H281    0.930   .     S
C280   C286    1.378   .     S
C282   C249    1.380   1_554 S
C282   H283    0.931   .     S
C284   H285    0.929   1_554 S
H285   C284    0.929   1_556 S
C286   H287    0.930   .     S
C288   H289    0.931   .     S
C288   C301    1.401   .     S
C290   C293    1.390   .     S
C291   H292    0.931   .     S
C293   H294    0.931   .     S
C293   C296    1.385   .     S
C295   C297    1.486   .     S
C295   C309    1.357   .     S
C295   C315    1.325   .     S
C296   C298    1.501   .     S
C298   C305    1.356   .     S
C298   C307    1.343   .     S
C299   H300    0.928   .     S
C299   C303    1.396   .     S
C301   H302    0.929   .     S
C303   H304    0.931   .     S
C305   H306    0.931   .     S
C305   C315    1.394   .     S
C307   H308    0.931   .     S
C307   C309    1.386   .     S
C309   H310    0.929   .     S
C311   H312    0.932   .     S
C311   C313    1.354   .     S
C313   H314    0.929   .     S
C315   H316    0.931   .     S
In317  O321    2.188   .     S
In317  O324    2.372   .     S
In317  O397    2.137   .     S
In317  O399    2.439   .     S
O318   C356    1.255   .     S
O318   In396   2.137   .     S
O319   C376    1.262   .     S
O319   In238   2.196   1_565 S
O320   C356    1.221   .     S
O320   In396   2.439   .     S
O321   C339    1.252   .     S
O322   C351    1.227   .     S
O323   C351    1.244   .     S
O324   C339    1.228   .     S
O325   C376    1.236   .     S
O325   In238   2.397   1_565 S
N326   C330    1.341   .     S
N326   C341    1.344   .     S
N327   C337    1.343   .     S
N327   C375    1.341   .     S
C328   H329    0.931   .     S
C328   C336    1.367   .     S
C328   C361    1.380   .     S
C330   C334    1.388   .     S
C330   C336    1.473   .     S
C331   H332    0.931   .     S
C331   C338    1.379   .     S
C331   C346    1.362   .     S
C333   C354    1.373   .     S
C333   C356    1.471   .     S
C333   C359    1.326   .     S
C334   H335    0.931   .     S
C334   C350    1.383   .     S
C336   C352    1.385   .     S
C337   C344    1.395   .     S
C337   C358    1.480   .     S
C338   C351    1.466   .     S
C338   C367    1.355   .     S
C339   C340    1.486   .     S
C340   C370    1.352   .     S
C340   C361    1.353   .     S
C341   C342    1.393   .     S
C341   C357    1.493   .     S
C342   H343    0.929   .     S
C342   C350    1.388   .     S
C344   H345    0.929   .     S
C344   C369    1.358   .     S
C346   H347    0.929   .     S
C346   C358    1.385   .     S
C348   C350    1.487   .     S
C348   C378    1.337   .     S
C348   C390    1.388   .     S
C349   C369    1.489   .     S
C349   C382    1.290   .     S
C349   C392    1.422   .     S
C352   H353    0.929   .     S
C352   C370    1.380   .     S
C354   H355    0.930   .     S
C354   C363    1.369   .     S
C357   C365    1.361   .     S
C357   C363    1.335   .     S
C358   C380    1.348   .     S
C359   H360    0.930   .     S
C359   C365    1.378   .     S
C361   H362    0.931   .     S
C363   H364    0.929   .     S
C365   H366    0.930   .     S
C367   H368    0.931   .     S
C367   C380    1.401   .     S
C369   C372    1.390   .     S
C370   H371    0.931   .     S
C372   H373    0.931   .     S
C372   C375    1.385   .     S
C374   C376    1.486   .     S
C374   C388    1.357   .     S
C374   C394    1.325   .     S
C375   C377    1.501   .     S
C377   C384    1.356   .     S
C377   C386    1.343   .     S
C378   H379    0.928   .     S
C378   C382    1.396   .     S
C380   H381    0.929   .     S
C382   H383    0.931   .     S
C384   H385    0.931   .     S
C384   C394    1.394   .     S
C386   H387    0.931   .     S
C386   C388    1.386   .     S
C388   H389    0.929   .     S
C390   H391    0.932   .     S
C390   C392    1.354   .     S
C392   H393    0.929   .     S
C394   H395    0.931   .     S
In396  O400    2.188   1_565 S
In396  O403    2.372   1_565 S
In396  O161    2.196   1_565 S
In396  O167    2.397   1_565 S
O397   C435    1.255   .     S
O398   C455    1.262   .     S
O399   C435    1.221   .     S
O400   In396   2.188   1_545 S
O400   C418    1.252   .     S
O401   C430    1.227   .     S
O402   C430    1.244   .     S
O403   In396   2.372   1_545 S
O403   C418    1.228   .     S
O404   C455    1.236   .     S
N405   C409    1.341   .     S
N405   C420    1.344   .     S
N406   C416    1.343   .     S
N406   C454    1.341   .     S
C407   H408    0.931   .     S
C407   C415    1.367   .     S
C407   C440    1.380   .     S
C409   C413    1.388   .     S
C409   C415    1.473   .     S
C410   H411    0.931   1_655 S
C410   C417    1.379   .     S
C410   C425    1.362   .     S
H411   C410    0.931   1_455 S
C412   C433    1.373   .     S
C412   C435    1.471   .     S
C412   C438    1.326   .     S
C413   H414    0.931   .     S
C413   C429    1.383   .     S
C415   C431    1.385   .     S
C416   C423    1.395   .     S
C416   C437    1.480   .     S
C417   C430    1.466   1_655 S
C417   C446    1.355   .     S
C418   C419    1.486   1_455 S
C419   C418    1.486   1_655 S
C419   C449    1.352   .     S
C419   C440    1.353   .     S
C420   C421    1.393   .     S
C420   C436    1.493   .     S
C421   H422    0.929   .     S
C421   C429    1.388   .     S
C423   H424    0.929   .     S
C423   C448    1.358   .     S
C425   H426    0.929   .     S
C425   C437    1.385   .     S
C427   C429    1.487   .     S
C427   C457    1.337   .     S
C427   C469    1.388   .     S
C428   C448    1.489   .     S
C428   C461    1.290   .     S
C428   C471    1.422   .     S
C430   C417    1.466   1_455 S
C431   H432    0.929   .     S
C431   C449    1.380   .     S
C433   H434    0.930   .     S
C433   C442    1.369   .     S
C436   C444    1.361   .     S
C436   C442    1.335   .     S
C437   C459    1.348   .     S
C438   H439    0.930   .     S
C438   C444    1.378   .     S
C440   H441    0.931   .     S
C442   H443    0.929   .     S
C444   H445    0.930   .     S
C446   H447    0.931   .     S
C446   C459    1.401   .     S
C448   C451    1.390   .     S
C449   H450    0.931   .     S
C451   H452    0.931   .     S
C451   C454    1.385   .     S
C453   C455    1.486   .     S
C453   C467    1.357   .     S
C453   C473    1.325   .     S
C454   C456    1.501   .     S
C456   C463    1.356   .     S
C456   C465    1.343   .     S
C457   H458    0.928   .     S
C457   C461    1.396   .     S
C459   H460    0.929   .     S
C461   H462    0.931   .     S
C463   H464    0.931   .     S
C463   C473    1.394   .     S
C465   H466    0.931   .     S
C465   C467    1.386   .     S
C467   H468    0.929   .     S
C469   H470    0.932   .     S
C469   C471    1.354   .     S
C471   H472    0.929   .     S
C473   H474    0.931   .     S
In475  O479    2.188   .     S
In475  O482    2.372   .     S
In475  O555    2.137   .     S
In475  O557    2.439   .     S
O476   C514    1.255   .     S
O476   In554   2.137   .     S
O477   C534    1.262   .     S
O477   In80    2.196   1_565 S
O478   C514    1.221   .     S
O478   In554   2.439   .     S
O479   C497    1.252   .     S
O480   C509    1.227   .     S
O481   C509    1.244   .     S
O482   C497    1.228   .     S
O483   C534    1.236   .     S
O483   In80    2.397   1_565 S
N484   C488    1.341   1_556 S
N484   C499    1.344   1_556 S
N485   C495    1.343   .     S
N485   C533    1.341   .     S
C486   H487    0.931   .     S
C486   C494    1.367   1_554 S
C486   C519    1.380   1_554 S
C488   N484    1.341   1_554 S
C488   C492    1.388   .     S
C488   C494    1.473   1_554 S
C489   H490    0.931   .     S
C489   C496    1.379   .     S
C489   C504    1.362   .     S
C491   C512    1.373   .     S
C491   C514    1.471   .     S
C491   C517    1.326   .     S
C492   H493    0.931   .     S
C492   C508    1.383   .     S
C494   C486    1.367   1_556 S
C494   C510    1.385   .     S
C494   C488    1.473   1_556 S
C495   C502    1.395   .     S
C495   C516    1.480   .     S
C496   C509    1.466   .     S
C496   C525    1.355   .     S
C497   C498    1.486   .     S
C498   C528    1.352   .     S
C498   C519    1.353   .     S
C499   N484    1.344   1_554 S
C499   C500    1.393   .     S
C499   C515    1.493   1_554 S
C500   H501    0.929   .     S
C500   C508    1.388   .     S
C502   H503    0.929   .     S
C502   C527    1.358   .     S
C504   H505    0.929   .     S
C504   C516    1.385   .     S
C506   C508    1.487   .     S
C506   C536    1.337   .     S
C506   C548    1.388   .     S
C507   C527    1.489   .     S
C507   C540    1.290   .     S
C507   C550    1.422   .     S
C510   H511    0.929   .     S
C510   C528    1.380   .     S
C512   H513    0.930   .     S
C512   C521    1.369   1_556 S
C515   C499    1.493   1_556 S
C515   C523    1.361   .     S
C515   C521    1.335   1_556 S
C516   C538    1.348   .     S
C517   H518    0.930   .     S
C517   C523    1.378   .     S
C519   C486    1.380   1_556 S
C519   H520    0.931   .     S
C521   C512    1.369   1_554 S
C521   H522    0.929   .     S
C521   C515    1.335   1_554 S
C523   H524    0.930   .     S
C525   H526    0.931   .     S
C525   C538    1.401   .     S
C527   C530    1.390   .     S
C528   H529    0.931   .     S
C530   H531    0.931   .     S
C530   C533    1.385   .     S
C532   C534    1.486   .     S
C532   C546    1.357   .     S
C532   C552    1.325   .     S
C533   C535    1.501   .     S
C535   C542    1.356   .     S
C535   C544    1.343   .     S
C536   H537    0.928   .     S
C536   C540    1.396   .     S
C538   H539    0.929   .     S
C540   H541    0.931   .     S
C542   H543    0.931   .     S
C542   C552    1.394   .     S
C544   H545    0.931   .     S
C544   C546    1.386   .     S
C546   H547    0.929   .     S
C548   H549    0.932   .     S
C548   C550    1.354   .     S
C550   H551    0.929   .     S
C552   H553    0.931   .     S
In554  O558    2.188   1_565 S
In554  O561    2.372   1_565 S
In554  O3      2.196   1_565 S
In554  O9      2.397   1_565 S
O555   C593    1.255   .     S
O556   C613    1.262   .     S
O557   C593    1.221   .     S
O558   In554   2.188   1_545 S
O558   C576    1.252   .     S
O559   C588    1.227   .     S
O560   C588    1.244   .     S
O561   In554   2.372   1_545 S
O561   C576    1.228   .     S
O562   C613    1.236   .     S
N563   C567    1.341   1_556 S
N563   C578    1.344   1_556 S
N564   C574    1.343   .     S
N564   C612    1.341   .     S
C565   H566    0.931   .     S
C565   C573    1.367   1_554 S
C565   C598    1.380   1_554 S
C567   N563    1.341   1_554 S
C567   C571    1.388   .     S
C567   C573    1.473   1_554 S
C568   H569    0.931   1_455 S
C568   C575    1.379   .     S
C568   C583    1.362   .     S
H569   C568    0.931   1_655 S
C570   C591    1.373   .     S
C570   C593    1.471   .     S
C570   C596    1.326   .     S
C571   H572    0.931   .     S
C571   C587    1.383   .     S
C573   C565    1.367   1_556 S
C573   C589    1.385   .     S
C573   C567    1.473   1_556 S
C574   C581    1.395   .     S
C574   C595    1.480   .     S
C575   C588    1.466   1_455 S
C575   C604    1.355   .     S
C576   C577    1.486   1_655 S
C577   C576    1.486   1_455 S
C577   C607    1.352   .     S
C577   C598    1.353   .     S
C578   N563    1.344   1_554 S
C578   C579    1.393   .     S
C578   C594    1.493   1_554 S
C579   H580    0.929   .     S
C579   C587    1.388   .     S
C581   H582    0.929   .     S
C581   C606    1.358   .     S
C583   H584    0.929   .     S
C583   C595    1.385   .     S
C585   C587    1.487   .     S
C585   C615    1.337   .     S
C585   C627    1.388   .     S
C586   C606    1.489   .     S
C586   C619    1.290   .     S
C586   C629    1.422   .     S
C588   C575    1.466   1_655 S
C589   H590    0.929   .     S
C589   C607    1.380   .     S
C591   H592    0.930   .     S
C591   C600    1.369   1_556 S
C594   C578    1.493   1_556 S
C594   C602    1.361   .     S
C594   C600    1.335   1_556 S
C595   C617    1.348   .     S
C596   H597    0.930   .     S
C596   C602    1.378   .     S
C598   C565    1.380   1_556 S
C598   H599    0.931   .     S
C600   C591    1.369   1_554 S
C600   H601    0.929   .     S
C600   C594    1.335   1_554 S
C602   H603    0.930   .     S
C604   H605    0.931   .     S
C604   C617    1.401   .     S
C606   C609    1.390   .     S
C607   H608    0.931   .     S
C609   H610    0.931   .     S
C609   C612    1.385   .     S
C611   C613    1.486   .     S
C611   C625    1.357   .     S
C611   C631    1.325   .     S
C612   C614    1.501   .     S
C614   C621    1.356   .     S
C614   C623    1.343   .     S
C615   H616    0.928   .     S
C615   C619    1.396   .     S
C617   H618    0.929   .     S
C619   H620    0.931   .     S
C621   H622    0.931   .     S
C621   C631    1.394   .     S
C623   H624    0.931   .     S
C623   C625    1.386   .     S
C625   H626    0.929   .     S
C627   H628    0.932   .     S
C627   C629    1.354   .     S
C629   H630    0.929   .     S
C631   H632    0.931   .     S
