data_ZALZIY_FSR
_audit_creation_date              2024-06-11
_audit_creation_method            'Materials Studio'
_symmetry_space_group_name_H-M    'P1'
_symmetry_Int_Tables_number       1
_symmetry_cell_setting            triclinic
loop_
_symmetry_equiv_pos_as_xyz
  x,y,z
_cell_length_a                    24.2029
_cell_length_b                    12.4222
_cell_length_c                    17.8630
_cell_angle_alpha                 90.0000
_cell_angle_beta                  113.1970
_cell_angle_gamma                 90.0000
loop_
_atom_site_label
_atom_site_type_symbol
_atom_site_fract_x
_atom_site_fract_y
_atom_site_fract_z
_atom_site_U_iso_or_equiv
_atom_site_adp_type
_atom_site_occupancy
I1     I     0.45719   0.64902   0.53448   0.05282  Uani   1.00
Cu2    Cu    0.50086   0.45118   0.56476   0.04710  Uani   1.00
N3     N     0.25050   0.11290   0.43310   0.03979  Uani   1.00
O4     O     0.29010   0.61590   0.77440   0.07716  Uani   1.00
N5     N     0.43080   0.35590   0.55220   0.04393  Uani   1.00
N6     N     0.06870   0.05090   0.17710   0.04868  Uani   1.00
C7     C     0.21480   0.94620   0.46560   0.03841  Uani   1.00
H8     H     0.18610   0.89180   0.44920   0.04600  Uiso   1.00
C9     C     0.26270   0.94050   0.54150   0.03970  Uani   1.00
C10    C     0.15910   0.04140   0.33140   0.03912  Uani   1.00
C11    C     0.29660   0.10770   0.50630   0.04032  Uani   1.00
C12    C     0.16050   0.11390   0.27470   0.04803  Uani   1.00
H13    H     0.19260   0.16150   0.28750   0.05800  Uiso   1.00
C14    C     0.30390   0.02660   0.55990   0.04144  Uani   1.00
H15    H     0.33660   0.02780   0.60980   0.04900  Uiso   1.00
C16    C     0.11100   0.97300   0.31080   0.05484  Uani   1.00
H17    H     0.10800   0.92320   0.34790   0.06600  Uiso   1.00
C18    C     0.21010   0.03380   0.41450   0.03787  Uani   1.00
C19    C     0.34170   0.19560   0.52340   0.03950  Uani   1.00
C20    C     0.26970   0.85110   0.59910   0.04259  Uani   1.00
C21    C     0.38960   0.20740   0.59810   0.04763  Uani   1.00
H22    H     0.39360   0.16090   0.64070   0.05700  Uiso   1.00
C23    C     0.27960   0.69530   0.71380   0.05678  Uani   1.00
C24    C     0.22040   0.78970   0.59410   0.04734  Uani   1.00
H25    H     0.18330   0.80190   0.55200   0.05700  Uiso   1.00
C26    C     0.11540   0.11660   0.20010   0.04669  Uani   1.00
H27    H     0.11730   0.16730   0.16290   0.05700  Uiso   1.00
C28    C     0.06650   0.98080   0.23220   0.05139  Uani   1.00
H29    H     0.03370   0.93470   0.21760   0.06200  Uiso   1.00
C30    C     0.33880   0.27040   0.46520   0.05167  Uani   1.00
H31    H     0.30670   0.26820   0.41470   0.06200  Uiso   1.00
C32    C     0.43120   0.28760   0.60920   0.05019  Uani   1.00
H33    H     0.46200   0.29420   0.66060   0.06000  Uiso   1.00
C34    C     0.38200   0.34830   0.47950   0.05453  Uani   1.00
H35    H     0.37800   0.39750   0.43850   0.06500  Uiso   1.00
C36    C     0.22580   0.71140   0.65070   0.05324  Uani   1.00
H37    H     0.19280   0.66940   0.64600   0.06400  Uiso   1.00
C38    C     0.32430   0.83220   0.66280   0.06245  Uani   1.00
H39    H     0.35770   0.87310   0.66780   0.07500  Uiso   1.00
C40    C     0.32910   0.75150   0.71960   0.06886  Uani   1.00
H41    H     0.36610   0.73650   0.76120   0.08300  Uiso   1.00
C42    C     0.24140   0.54860   0.76580   0.10470  Uani   1.00
H43    H     0.20890   0.59110   0.76790   0.15800  Uiso   1.00
H44    H     0.25360   0.49680   0.80920   0.15800  Uiso   1.00
H45    H     0.22840   0.51180   0.71450   0.15800  Uiso   1.00
I46    I     0.95719   0.14902   0.53448   0.05282  Uani   1.00
Cu47   Cu    0.00086   0.95118   0.56476   0.04710  Uani   1.00
N48    N     0.75050   0.61290   0.43310   0.03979  Uani   1.00
O49    O     0.79010   0.11590   0.77440   0.07716  Uani   1.00
N50    N     0.93080   0.85590   0.55220   0.04393  Uani   1.00
N51    N     0.56870   0.55090   0.17710   0.04868  Uani   1.00
C52    C     0.71480   0.44620   0.46560   0.03841  Uani   1.00
H53    H     0.68610   0.39180   0.44920   0.04600  Uiso   1.00
C54    C     0.76270   0.44050   0.54150   0.03970  Uani   1.00
C55    C     0.65910   0.54140   0.33140   0.03912  Uani   1.00
C56    C     0.79660   0.60770   0.50630   0.04032  Uani   1.00
C57    C     0.66050   0.61390   0.27470   0.04803  Uani   1.00
H58    H     0.69260   0.66150   0.28750   0.05800  Uiso   1.00
C59    C     0.80390   0.52660   0.55990   0.04144  Uani   1.00
H60    H     0.83660   0.52780   0.60980   0.04900  Uiso   1.00
C61    C     0.61100   0.47300   0.31080   0.05484  Uani   1.00
H62    H     0.60800   0.42320   0.34790   0.06600  Uiso   1.00
C63    C     0.71010   0.53380   0.41450   0.03787  Uani   1.00
C64    C     0.84170   0.69560   0.52340   0.03950  Uani   1.00
C65    C     0.76970   0.35110   0.59910   0.04259  Uani   1.00
C66    C     0.88960   0.70740   0.59810   0.04763  Uani   1.00
H67    H     0.89360   0.66090   0.64070   0.05700  Uiso   1.00
C68    C     0.77960   0.19530   0.71380   0.05678  Uani   1.00
C69    C     0.72040   0.28970   0.59410   0.04734  Uani   1.00
H70    H     0.68330   0.30190   0.55200   0.05700  Uiso   1.00
C71    C     0.61540   0.61660   0.20010   0.04669  Uani   1.00
H72    H     0.61730   0.66730   0.16290   0.05700  Uiso   1.00
C73    C     0.56650   0.48080   0.23220   0.05139  Uani   1.00
H74    H     0.53370   0.43470   0.21760   0.06200  Uiso   1.00
C75    C     0.83880   0.77040   0.46520   0.05167  Uani   1.00
H76    H     0.80670   0.76820   0.41470   0.06200  Uiso   1.00
C77    C     0.93120   0.78760   0.60920   0.05019  Uani   1.00
H78    H     0.96200   0.79420   0.66060   0.06000  Uiso   1.00
C79    C     0.88200   0.84830   0.47950   0.05453  Uani   1.00
H80    H     0.87800   0.89750   0.43850   0.06500  Uiso   1.00
C81    C     0.72580   0.21140   0.65070   0.05324  Uani   1.00
H82    H     0.69280   0.16940   0.64600   0.06400  Uiso   1.00
C83    C     0.82430   0.33220   0.66280   0.06245  Uani   1.00
H84    H     0.85770   0.37310   0.66780   0.07500  Uiso   1.00
C85    C     0.82910   0.25150   0.71960   0.06886  Uani   1.00
H86    H     0.86610   0.23650   0.76120   0.08300  Uiso   1.00
C87    C     0.74140   0.04860   0.76580   0.10470  Uani   1.00
H88    H     0.70890   0.09110   0.76790   0.15800  Uiso   1.00
H89    H     0.75360   0.99680   0.80920   0.15800  Uiso   1.00
H90    H     0.72840   0.01180   0.71450   0.15800  Uiso   1.00
I91    I     0.54281   0.64902   0.96552   0.05282  Uani   1.00
Cu92   Cu    0.49914   0.45118   0.93524   0.04710  Uani   1.00
N93    N     0.74950   0.11290   0.06690   0.03979  Uani   1.00
O94    O     0.70990   0.61590   0.72560   0.07716  Uani   1.00
N95    N     0.56920   0.35590   0.94780   0.04393  Uani   1.00
N96    N     0.93130   0.05090   0.32290   0.04868  Uani   1.00
C97    C     0.78520   0.94620   0.03440   0.03841  Uani   1.00
H98    H     0.81390   0.89180   0.05080   0.04600  Uiso   1.00
C99    C     0.73730   0.94050   0.95850   0.03970  Uani   1.00
C100   C     0.84090   0.04140   0.16860   0.03912  Uani   1.00
C101   C     0.70340   0.10770   0.99370   0.04032  Uani   1.00
C102   C     0.83950   0.11390   0.22530   0.04803  Uani   1.00
H103   H     0.80740   0.16150   0.21250   0.05800  Uiso   1.00
C104   C     0.69610   0.02660   0.94010   0.04144  Uani   1.00
H105   H     0.66340   0.02780   0.89020   0.04900  Uiso   1.00
C106   C     0.88900   0.97300   0.18920   0.05484  Uani   1.00
H107   H     0.89200   0.92320   0.15210   0.06600  Uiso   1.00
C108   C     0.78990   0.03380   0.08550   0.03787  Uani   1.00
C109   C     0.65830   0.19560   0.97660   0.03950  Uani   1.00
C110   C     0.73030   0.85110   0.90090   0.04259  Uani   1.00
C111   C     0.61040   0.20740   0.90190   0.04763  Uani   1.00
H112   H     0.60640   0.16090   0.85930   0.05700  Uiso   1.00
C113   C     0.72040   0.69530   0.78620   0.05678  Uani   1.00
C114   C     0.77960   0.78970   0.90590   0.04734  Uani   1.00
H115   H     0.81670   0.80190   0.94800   0.05700  Uiso   1.00
C116   C     0.88460   0.11660   0.29990   0.04669  Uani   1.00
H117   H     0.88270   0.16730   0.33710   0.05700  Uiso   1.00
C118   C     0.93350   0.98080   0.26780   0.05139  Uani   1.00
H119   H     0.96630   0.93470   0.28240   0.06200  Uiso   1.00
C120   C     0.66120   0.27040   0.03480   0.05167  Uani   1.00
H121   H     0.69330   0.26820   0.08530   0.06200  Uiso   1.00
C122   C     0.56880   0.28760   0.89080   0.05019  Uani   1.00
H123   H     0.53800   0.29420   0.83940   0.06000  Uiso   1.00
C124   C     0.61800   0.34830   0.02050   0.05453  Uani   1.00
H125   H     0.62200   0.39750   0.06150   0.06500  Uiso   1.00
C126   C     0.77420   0.71140   0.84930   0.05324  Uani   1.00
H127   H     0.80720   0.66940   0.85400   0.06400  Uiso   1.00
C128   C     0.67570   0.83220   0.83720   0.06245  Uani   1.00
H129   H     0.64230   0.87310   0.83220   0.07500  Uiso   1.00
C130   C     0.67090   0.75150   0.78040   0.06886  Uani   1.00
H131   H     0.63390   0.73650   0.73880   0.08300  Uiso   1.00
C132   C     0.75860   0.54860   0.73420   0.10470  Uani   1.00
H133   H     0.79110   0.59110   0.73210   0.15800  Uiso   1.00
H134   H     0.74640   0.49680   0.69080   0.15800  Uiso   1.00
H135   H     0.77160   0.51180   0.78550   0.15800  Uiso   1.00
I136   I     0.04281   0.14902   0.96552   0.05282  Uani   1.00
Cu137  Cu    0.99914   0.95118   0.93524   0.04710  Uani   1.00
N138   N     0.24950   0.61290   0.06690   0.03979  Uani   1.00
O139   O     0.20990   0.11590   0.72560   0.07716  Uani   1.00
N140   N     0.06920   0.85590   0.94780   0.04393  Uani   1.00
N141   N     0.43130   0.55090   0.32290   0.04868  Uani   1.00
C142   C     0.28520   0.44620   0.03440   0.03841  Uani   1.00
H143   H     0.31390   0.39180   0.05080   0.04600  Uiso   1.00
C144   C     0.23730   0.44050   0.95850   0.03970  Uani   1.00
C145   C     0.34090   0.54140   0.16860   0.03912  Uani   1.00
C146   C     0.20340   0.60770   0.99370   0.04032  Uani   1.00
C147   C     0.33950   0.61390   0.22530   0.04803  Uani   1.00
H148   H     0.30740   0.66150   0.21250   0.05800  Uiso   1.00
C149   C     0.19610   0.52660   0.94010   0.04144  Uani   1.00
H150   H     0.16340   0.52780   0.89020   0.04900  Uiso   1.00
C151   C     0.38900   0.47300   0.18920   0.05484  Uani   1.00
H152   H     0.39200   0.42320   0.15210   0.06600  Uiso   1.00
C153   C     0.28990   0.53380   0.08550   0.03787  Uani   1.00
C154   C     0.15830   0.69560   0.97660   0.03950  Uani   1.00
C155   C     0.23030   0.35110   0.90090   0.04259  Uani   1.00
C156   C     0.11040   0.70740   0.90190   0.04763  Uani   1.00
H157   H     0.10640   0.66090   0.85930   0.05700  Uiso   1.00
C158   C     0.22040   0.19530   0.78620   0.05678  Uani   1.00
C159   C     0.27960   0.28970   0.90590   0.04734  Uani   1.00
H160   H     0.31670   0.30190   0.94800   0.05700  Uiso   1.00
C161   C     0.38460   0.61660   0.29990   0.04669  Uani   1.00
H162   H     0.38270   0.66730   0.33710   0.05700  Uiso   1.00
C163   C     0.43350   0.48080   0.26780   0.05139  Uani   1.00
H164   H     0.46630   0.43470   0.28240   0.06200  Uiso   1.00
C165   C     0.16120   0.77040   0.03480   0.05167  Uani   1.00
H166   H     0.19330   0.76820   0.08530   0.06200  Uiso   1.00
C167   C     0.06880   0.78760   0.89080   0.05019  Uani   1.00
H168   H     0.03800   0.79420   0.83940   0.06000  Uiso   1.00
C169   C     0.11800   0.84830   0.02050   0.05453  Uani   1.00
H170   H     0.12200   0.89750   0.06150   0.06500  Uiso   1.00
C171   C     0.27420   0.21140   0.84930   0.05324  Uani   1.00
H172   H     0.30720   0.16940   0.85400   0.06400  Uiso   1.00
C173   C     0.17570   0.33220   0.83720   0.06245  Uani   1.00
H174   H     0.14230   0.37310   0.83220   0.07500  Uiso   1.00
C175   C     0.17090   0.25150   0.78040   0.06886  Uani   1.00
H176   H     0.13390   0.23650   0.73880   0.08300  Uiso   1.00
C177   C     0.25860   0.04860   0.73420   0.10470  Uani   1.00
H178   H     0.29110   0.09110   0.73210   0.15800  Uiso   1.00
H179   H     0.24640   0.99680   0.69080   0.15800  Uiso   1.00
H180   H     0.27160   0.01180   0.78550   0.15800  Uiso   1.00
I181   I     0.54281   0.35098   0.46552   0.05282  Uani   1.00
Cu182  Cu    0.49914   0.54882   0.43524   0.04710  Uani   1.00
N183   N     0.74950   0.88710   0.56690   0.03979  Uani   1.00
O184   O     0.70990   0.38410   0.22560   0.07716  Uani   1.00
N185   N     0.56920   0.64410   0.44780   0.04393  Uani   1.00
N186   N     0.93130   0.94910   0.82290   0.04868  Uani   1.00
C187   C     0.78520   0.05380   0.53440   0.03841  Uani   1.00
H188   H     0.81390   0.10820   0.55080   0.04600  Uiso   1.00
C189   C     0.73730   0.05950   0.45850   0.03970  Uani   1.00
C190   C     0.84090   0.95860   0.66860   0.03912  Uani   1.00
C191   C     0.70340   0.89230   0.49370   0.04032  Uani   1.00
C192   C     0.83950   0.88610   0.72530   0.04803  Uani   1.00
H193   H     0.80740   0.83850   0.71250   0.05800  Uiso   1.00
C194   C     0.69610   0.97340   0.44010   0.04144  Uani   1.00
H195   H     0.66340   0.97220   0.39020   0.04900  Uiso   1.00
C196   C     0.88900   0.02700   0.68920   0.05484  Uani   1.00
H197   H     0.89200   0.07680   0.65210   0.06600  Uiso   1.00
C198   C     0.78990   0.96620   0.58550   0.03787  Uani   1.00
C199   C     0.65830   0.80440   0.47660   0.03950  Uani   1.00
C200   C     0.73030   0.14890   0.40090   0.04259  Uani   1.00
C201   C     0.61040   0.79260   0.40190   0.04763  Uani   1.00
H202   H     0.60640   0.83910   0.35930   0.05700  Uiso   1.00
C203   C     0.72040   0.30470   0.28620   0.05678  Uani   1.00
C204   C     0.77960   0.21030   0.40590   0.04734  Uani   1.00
H205   H     0.81670   0.19810   0.44800   0.05700  Uiso   1.00
C206   C     0.88460   0.88340   0.79990   0.04669  Uani   1.00
H207   H     0.88270   0.83270   0.83710   0.05700  Uiso   1.00
C208   C     0.93350   0.01920   0.76780   0.05139  Uani   1.00
H209   H     0.96630   0.06530   0.78240   0.06200  Uiso   1.00
C210   C     0.66120   0.72960   0.53480   0.05167  Uani   1.00
H211   H     0.69330   0.73180   0.58530   0.06200  Uiso   1.00
C212   C     0.56880   0.71240   0.39080   0.05019  Uani   1.00
H213   H     0.53800   0.70580   0.33940   0.06000  Uiso   1.00
C214   C     0.61800   0.65170   0.52050   0.05453  Uani   1.00
H215   H     0.62200   0.60250   0.56150   0.06500  Uiso   1.00
C216   C     0.77420   0.28860   0.34930   0.05324  Uani   1.00
H217   H     0.80720   0.33060   0.35400   0.06400  Uiso   1.00
C218   C     0.67570   0.16780   0.33720   0.06245  Uani   1.00
H219   H     0.64230   0.12690   0.33220   0.07500  Uiso   1.00
C220   C     0.67090   0.24850   0.28040   0.06886  Uani   1.00
H221   H     0.63390   0.26350   0.23880   0.08300  Uiso   1.00
C222   C     0.75860   0.45140   0.23420   0.10470  Uani   1.00
H223   H     0.79110   0.40890   0.23210   0.15800  Uiso   1.00
H224   H     0.74640   0.50320   0.19080   0.15800  Uiso   1.00
H225   H     0.77160   0.48820   0.28550   0.15800  Uiso   1.00
I226   I     0.04281   0.85098   0.46552   0.05282  Uani   1.00
Cu227  Cu    0.99914   0.04882   0.43524   0.04710  Uani   1.00
N228   N     0.24950   0.38710   0.56690   0.03979  Uani   1.00
O229   O     0.20990   0.88410   0.22560   0.07716  Uani   1.00
N230   N     0.06920   0.14410   0.44780   0.04393  Uani   1.00
N231   N     0.43130   0.44910   0.82290   0.04868  Uani   1.00
C232   C     0.28520   0.55380   0.53440   0.03841  Uani   1.00
H233   H     0.31390   0.60820   0.55080   0.04600  Uiso   1.00
C234   C     0.23730   0.55950   0.45850   0.03970  Uani   1.00
C235   C     0.34090   0.45860   0.66860   0.03912  Uani   1.00
C236   C     0.20340   0.39230   0.49370   0.04032  Uani   1.00
C237   C     0.33950   0.38610   0.72530   0.04803  Uani   1.00
H238   H     0.30740   0.33850   0.71250   0.05800  Uiso   1.00
C239   C     0.19610   0.47340   0.44010   0.04144  Uani   1.00
H240   H     0.16340   0.47220   0.39020   0.04900  Uiso   1.00
C241   C     0.38900   0.52700   0.68920   0.05484  Uani   1.00
H242   H     0.39200   0.57680   0.65210   0.06600  Uiso   1.00
C243   C     0.28990   0.46620   0.58550   0.03787  Uani   1.00
C244   C     0.15830   0.30440   0.47660   0.03950  Uani   1.00
C245   C     0.23030   0.64890   0.40090   0.04259  Uani   1.00
C246   C     0.11040   0.29260   0.40190   0.04763  Uani   1.00
H247   H     0.10640   0.33910   0.35930   0.05700  Uiso   1.00
C248   C     0.22040   0.80470   0.28620   0.05678  Uani   1.00
C249   C     0.27960   0.71030   0.40590   0.04734  Uani   1.00
H250   H     0.31670   0.69810   0.44800   0.05700  Uiso   1.00
C251   C     0.38460   0.38340   0.79990   0.04669  Uani   1.00
H252   H     0.38270   0.33270   0.83710   0.05700  Uiso   1.00
C253   C     0.43350   0.51920   0.76780   0.05139  Uani   1.00
H254   H     0.46630   0.56530   0.78240   0.06200  Uiso   1.00
C255   C     0.16120   0.22960   0.53480   0.05167  Uani   1.00
H256   H     0.19330   0.23180   0.58530   0.06200  Uiso   1.00
C257   C     0.06880   0.21240   0.39080   0.05019  Uani   1.00
H258   H     0.03800   0.20580   0.33940   0.06000  Uiso   1.00
C259   C     0.11800   0.15170   0.52050   0.05453  Uani   1.00
H260   H     0.12200   0.10250   0.56150   0.06500  Uiso   1.00
C261   C     0.27420   0.78860   0.34930   0.05324  Uani   1.00
H262   H     0.30720   0.83060   0.35400   0.06400  Uiso   1.00
C263   C     0.17570   0.66780   0.33720   0.06245  Uani   1.00
H264   H     0.14230   0.62690   0.33220   0.07500  Uiso   1.00
C265   C     0.17090   0.74850   0.28040   0.06886  Uani   1.00
H266   H     0.13390   0.76350   0.23880   0.08300  Uiso   1.00
C267   C     0.25860   0.95140   0.23420   0.10470  Uani   1.00
H268   H     0.29110   0.90890   0.23210   0.15800  Uiso   1.00
H269   H     0.24640   0.00320   0.19080   0.15800  Uiso   1.00
H270   H     0.27160   0.98820   0.28550   0.15800  Uiso   1.00
I271   I     0.45719   0.35098   0.03448   0.05282  Uani   1.00
Cu272  Cu    0.50086   0.54882   0.06476   0.04710  Uani   1.00
N273   N     0.25050   0.88710   0.93310   0.03979  Uani   1.00
O274   O     0.29010   0.38410   0.27440   0.07716  Uani   1.00
N275   N     0.43080   0.64410   0.05220   0.04393  Uani   1.00
N276   N     0.06870   0.94910   0.67710   0.04868  Uani   1.00
C277   C     0.21480   0.05380   0.96560   0.03841  Uani   1.00
H278   H     0.18610   0.10820   0.94920   0.04600  Uiso   1.00
C279   C     0.26270   0.05950   0.04150   0.03970  Uani   1.00
C280   C     0.15910   0.95860   0.83140   0.03912  Uani   1.00
C281   C     0.29660   0.89230   0.00630   0.04032  Uani   1.00
C282   C     0.16050   0.88610   0.77470   0.04803  Uani   1.00
H283   H     0.19260   0.83850   0.78750   0.05800  Uiso   1.00
C284   C     0.30390   0.97340   0.05990   0.04144  Uani   1.00
H285   H     0.33660   0.97220   0.10980   0.04900  Uiso   1.00
C286   C     0.11100   0.02700   0.81080   0.05484  Uani   1.00
H287   H     0.10800   0.07680   0.84790   0.06600  Uiso   1.00
C288   C     0.21010   0.96620   0.91450   0.03787  Uani   1.00
C289   C     0.34170   0.80440   0.02340   0.03950  Uani   1.00
C290   C     0.26970   0.14890   0.09910   0.04259  Uani   1.00
C291   C     0.38960   0.79260   0.09810   0.04763  Uani   1.00
H292   H     0.39360   0.83910   0.14070   0.05700  Uiso   1.00
C293   C     0.27960   0.30470   0.21380   0.05678  Uani   1.00
C294   C     0.22040   0.21030   0.09410   0.04734  Uani   1.00
H295   H     0.18330   0.19810   0.05200   0.05700  Uiso   1.00
C296   C     0.11540   0.88340   0.70010   0.04669  Uani   1.00
H297   H     0.11730   0.83270   0.66290   0.05700  Uiso   1.00
C298   C     0.06650   0.01920   0.73220   0.05139  Uani   1.00
H299   H     0.03370   0.06530   0.71760   0.06200  Uiso   1.00
C300   C     0.33880   0.72960   0.96520   0.05167  Uani   1.00
H301   H     0.30670   0.73180   0.91470   0.06200  Uiso   1.00
C302   C     0.43120   0.71240   0.10920   0.05019  Uani   1.00
H303   H     0.46200   0.70580   0.16060   0.06000  Uiso   1.00
C304   C     0.38200   0.65170   0.97950   0.05453  Uani   1.00
H305   H     0.37800   0.60250   0.93850   0.06500  Uiso   1.00
C306   C     0.22580   0.28860   0.15070   0.05324  Uani   1.00
H307   H     0.19280   0.33060   0.14600   0.06400  Uiso   1.00
C308   C     0.32430   0.16780   0.16280   0.06245  Uani   1.00
H309   H     0.35770   0.12690   0.16780   0.07500  Uiso   1.00
C310   C     0.32910   0.24850   0.21960   0.06886  Uani   1.00
H311   H     0.36610   0.26350   0.26120   0.08300  Uiso   1.00
C312   C     0.24140   0.45140   0.26580   0.10470  Uani   1.00
H313   H     0.20890   0.40890   0.26790   0.15800  Uiso   1.00
H314   H     0.25360   0.50320   0.30920   0.15800  Uiso   1.00
H315   H     0.22840   0.48820   0.21450   0.15800  Uiso   1.00
I316   I     0.95719   0.85098   0.03448   0.05282  Uani   1.00
Cu317  Cu    0.00086   0.04882   0.06476   0.04710  Uani   1.00
N318   N     0.75050   0.38710   0.93310   0.03979  Uani   1.00
O319   O     0.79010   0.88410   0.27440   0.07716  Uani   1.00
N320   N     0.93080   0.14410   0.05220   0.04393  Uani   1.00
N321   N     0.56870   0.44910   0.67710   0.04868  Uani   1.00
C322   C     0.71480   0.55380   0.96560   0.03841  Uani   1.00
H323   H     0.68610   0.60820   0.94920   0.04600  Uiso   1.00
C324   C     0.76270   0.55950   0.04150   0.03970  Uani   1.00
C325   C     0.65910   0.45860   0.83140   0.03912  Uani   1.00
C326   C     0.79660   0.39230   0.00630   0.04032  Uani   1.00
C327   C     0.66050   0.38610   0.77470   0.04803  Uani   1.00
H328   H     0.69260   0.33850   0.78750   0.05800  Uiso   1.00
C329   C     0.80390   0.47340   0.05990   0.04144  Uani   1.00
H330   H     0.83660   0.47220   0.10980   0.04900  Uiso   1.00
C331   C     0.61100   0.52700   0.81080   0.05484  Uani   1.00
H332   H     0.60800   0.57680   0.84790   0.06600  Uiso   1.00
C333   C     0.71010   0.46620   0.91450   0.03787  Uani   1.00
C334   C     0.84170   0.30440   0.02340   0.03950  Uani   1.00
C335   C     0.76970   0.64890   0.09910   0.04259  Uani   1.00
C336   C     0.88960   0.29260   0.09810   0.04763  Uani   1.00
H337   H     0.89360   0.33910   0.14070   0.05700  Uiso   1.00
C338   C     0.77960   0.80470   0.21380   0.05678  Uani   1.00
C339   C     0.72040   0.71030   0.09410   0.04734  Uani   1.00
H340   H     0.68330   0.69810   0.05200   0.05700  Uiso   1.00
C341   C     0.61540   0.38340   0.70010   0.04669  Uani   1.00
H342   H     0.61730   0.33270   0.66290   0.05700  Uiso   1.00
C343   C     0.56650   0.51920   0.73220   0.05139  Uani   1.00
H344   H     0.53370   0.56530   0.71760   0.06200  Uiso   1.00
C345   C     0.83880   0.22960   0.96520   0.05167  Uani   1.00
H346   H     0.80670   0.23180   0.91470   0.06200  Uiso   1.00
C347   C     0.93120   0.21240   0.10920   0.05019  Uani   1.00
H348   H     0.96200   0.20580   0.16060   0.06000  Uiso   1.00
C349   C     0.88200   0.15170   0.97950   0.05453  Uani   1.00
H350   H     0.87800   0.10250   0.93850   0.06500  Uiso   1.00
C351   C     0.72580   0.78860   0.15070   0.05324  Uani   1.00
H352   H     0.69280   0.83060   0.14600   0.06400  Uiso   1.00
C353   C     0.82430   0.66780   0.16280   0.06245  Uani   1.00
H354   H     0.85770   0.62690   0.16780   0.07500  Uiso   1.00
C355   C     0.82910   0.74850   0.21960   0.06886  Uani   1.00
H356   H     0.86610   0.76350   0.26120   0.08300  Uiso   1.00
C357   C     0.74140   0.95140   0.26580   0.10470  Uani   1.00
H358   H     0.70890   0.90890   0.26790   0.15800  Uiso   1.00
H359   H     0.75360   0.00320   0.30920   0.15800  Uiso   1.00
H360   H     0.72840   0.98820   0.21450   0.15800  Uiso   1.00
loop_
_atom_site_aniso_label
_atom_site_aniso_U_11
_atom_site_aniso_U_22
_atom_site_aniso_U_33
_atom_site_aniso_U_12
_atom_site_aniso_U_13
_atom_site_aniso_U_23
I1        0.05420   0.06370   0.04580   0.00460   0.02530  -0.00050
Cu2       0.04060   0.06390   0.03330  -0.00620   0.01080  -0.00070
N3        0.04300   0.05000   0.02900   0.00100   0.01700   0.00200
O4        0.13500   0.06200   0.04600   0.02500   0.04800   0.01700
N5        0.04100   0.05800   0.03000  -0.00300   0.01100   0.00100
N6        0.03900   0.07000   0.04100   0.00100   0.02000   0.00900
C7        0.04500   0.04300   0.03100   0.00100   0.01900  -0.00400
C9        0.04500   0.04500   0.03100   0.00400   0.01700   0.00200
C10       0.03900   0.04400   0.03400  -0.00100   0.01400   0.00000
C11       0.04400   0.04000   0.03700  -0.00300   0.01600  -0.00800
C12       0.04800   0.05400   0.03600  -0.00200   0.01000   0.00800
C14       0.04200   0.04700   0.03200   0.00800   0.01100   0.00400
C16       0.03700   0.09100   0.03300  -0.01700   0.01000   0.00600
C18       0.03200   0.05800   0.02600   0.00300   0.01400   0.00100
C19       0.04100   0.05100   0.03100  -0.00100   0.01900  -0.00200
C20       0.06500   0.03000   0.03100   0.00500   0.01700  -0.00200
C21       0.05600   0.04500   0.03300  -0.00300   0.00800   0.00500
C23       0.09200   0.05300   0.04100   0.02700   0.04300   0.01100
C24       0.06000   0.06000   0.02900   0.00400   0.02500   0.00800
C26       0.05000   0.05700   0.03200  -0.00700   0.01500   0.00600
C28       0.03300   0.08200   0.03900  -0.00800   0.01400   0.00800
C30       0.04300   0.07200   0.03500  -0.01000   0.01000   0.00400
C32       0.04500   0.06800   0.03500  -0.01300   0.01300  -0.00000
C34       0.04700   0.07300   0.03900  -0.01200   0.01200   0.01200
C36       0.06400   0.06200   0.05400   0.01100   0.04500   0.01200
C38       0.06600   0.04600   0.05500  -0.00400   0.00200   0.00500
C40       0.08700   0.06100   0.03600  -0.00200  -0.00000   0.00400
C42       0.13900   0.11100   0.10900   0.03500   0.09700   0.05300
I46       0.05420   0.06370   0.04580   0.00460   0.02530  -0.00050
Cu47      0.04060   0.06390   0.03330  -0.00620   0.01080  -0.00070
N48       0.04300   0.05000   0.02900   0.00100   0.01700   0.00200
O49       0.13500   0.06200   0.04600   0.02500   0.04800   0.01700
N50       0.04100   0.05800   0.03000  -0.00300   0.01100   0.00100
N51       0.03900   0.07000   0.04100   0.00100   0.02000   0.00900
C52       0.04500   0.04300   0.03100   0.00100   0.01900  -0.00400
C54       0.04500   0.04500   0.03100   0.00400   0.01700   0.00200
C55       0.03900   0.04400   0.03400  -0.00100   0.01400   0.00000
C56       0.04400   0.04000   0.03700  -0.00300   0.01600  -0.00800
C57       0.04800   0.05400   0.03600  -0.00200   0.01000   0.00800
C59       0.04200   0.04700   0.03200   0.00800   0.01100   0.00400
C61       0.03700   0.09100   0.03300  -0.01700   0.01000   0.00600
C63       0.03200   0.05800   0.02600   0.00300   0.01400   0.00100
C64       0.04100   0.05100   0.03100  -0.00100   0.01900  -0.00200
C65       0.06500   0.03000   0.03100   0.00500   0.01700  -0.00200
C66       0.05600   0.04500   0.03300  -0.00300   0.00800   0.00500
C68       0.09200   0.05300   0.04100   0.02700   0.04300   0.01100
C69       0.06000   0.06000   0.02900   0.00400   0.02500   0.00800
C71       0.05000   0.05700   0.03200  -0.00700   0.01500   0.00600
C73       0.03300   0.08200   0.03900  -0.00800   0.01400   0.00800
C75       0.04300   0.07200   0.03500  -0.01000   0.01000   0.00400
C77       0.04500   0.06800   0.03500  -0.01300   0.01300  -0.00000
C79       0.04700   0.07300   0.03900  -0.01200   0.01200   0.01200
C81       0.06400   0.06200   0.05400   0.01100   0.04500   0.01200
C83       0.06600   0.04600   0.05500  -0.00400   0.00200   0.00500
C85       0.08700   0.06100   0.03600  -0.00200  -0.00000   0.00400
C87       0.13900   0.11100   0.10900   0.03500   0.09700   0.05300
I91       0.05420   0.06370   0.04580  -0.00460   0.02530   0.00050
Cu92      0.04060   0.06390   0.03330   0.00620   0.01080   0.00070
N93       0.04300   0.05000   0.02900  -0.00100   0.01700  -0.00200
O94       0.13500   0.06200   0.04600  -0.02500   0.04800  -0.01700
N95       0.04100   0.05800   0.03000   0.00300   0.01100  -0.00100
N96       0.03900   0.07000   0.04100  -0.00100   0.02000  -0.00900
C97       0.04500   0.04300   0.03100  -0.00100   0.01900   0.00400
C99       0.04500   0.04500   0.03100  -0.00400   0.01700  -0.00200
C100      0.03900   0.04400   0.03400   0.00100   0.01400   0.00000
C101      0.04400   0.04000   0.03700   0.00300   0.01600   0.00800
C102      0.04800   0.05400   0.03600   0.00200   0.01000  -0.00800
C104      0.04200   0.04700   0.03200  -0.00800   0.01100  -0.00400
C106      0.03700   0.09100   0.03300   0.01700   0.01000  -0.00600
C108      0.03200   0.05800   0.02600  -0.00300   0.01400  -0.00100
C109      0.04100   0.05100   0.03100   0.00100   0.01900   0.00200
C110      0.06500   0.03000   0.03100  -0.00500   0.01700   0.00200
C111      0.05600   0.04500   0.03300   0.00300   0.00800  -0.00500
C113      0.09200   0.05300   0.04100  -0.02700   0.04300  -0.01100
C114      0.06000   0.06000   0.02900  -0.00400   0.02500  -0.00800
C116      0.05000   0.05700   0.03200   0.00700   0.01500  -0.00600
C118      0.03300   0.08200   0.03900   0.00800   0.01400  -0.00800
C120      0.04300   0.07200   0.03500   0.01000   0.01000  -0.00400
C122      0.04500   0.06800   0.03500   0.01300   0.01300   0.00000
C124      0.04700   0.07300   0.03900   0.01200   0.01200  -0.01200
C126      0.06400   0.06200   0.05400  -0.01100   0.04500  -0.01200
C128      0.06600   0.04600   0.05500   0.00400   0.00200  -0.00500
C130      0.08700   0.06100   0.03600   0.00200  -0.00000  -0.00400
C132      0.13900   0.11100   0.10900  -0.03500   0.09700  -0.05300
I136      0.05420   0.06370   0.04580  -0.00460   0.02530   0.00050
Cu137     0.04060   0.06390   0.03330   0.00620   0.01080   0.00070
N138      0.04300   0.05000   0.02900  -0.00100   0.01700  -0.00200
O139      0.13500   0.06200   0.04600  -0.02500   0.04800  -0.01700
N140      0.04100   0.05800   0.03000   0.00300   0.01100  -0.00100
N141      0.03900   0.07000   0.04100  -0.00100   0.02000  -0.00900
C142      0.04500   0.04300   0.03100  -0.00100   0.01900   0.00400
C144      0.04500   0.04500   0.03100  -0.00400   0.01700  -0.00200
C145      0.03900   0.04400   0.03400   0.00100   0.01400   0.00000
C146      0.04400   0.04000   0.03700   0.00300   0.01600   0.00800
C147      0.04800   0.05400   0.03600   0.00200   0.01000  -0.00800
C149      0.04200   0.04700   0.03200  -0.00800   0.01100  -0.00400
C151      0.03700   0.09100   0.03300   0.01700   0.01000  -0.00600
C153      0.03200   0.05800   0.02600  -0.00300   0.01400  -0.00100
C154      0.04100   0.05100   0.03100   0.00100   0.01900   0.00200
C155      0.06500   0.03000   0.03100  -0.00500   0.01700   0.00200
C156      0.05600   0.04500   0.03300   0.00300   0.00800  -0.00500
C158      0.09200   0.05300   0.04100  -0.02700   0.04300  -0.01100
C159      0.06000   0.06000   0.02900  -0.00400   0.02500  -0.00800
C161      0.05000   0.05700   0.03200   0.00700   0.01500  -0.00600
C163      0.03300   0.08200   0.03900   0.00800   0.01400  -0.00800
C165      0.04300   0.07200   0.03500   0.01000   0.01000  -0.00400
C167      0.04500   0.06800   0.03500   0.01300   0.01300   0.00000
C169      0.04700   0.07300   0.03900   0.01200   0.01200  -0.01200
C171      0.06400   0.06200   0.05400  -0.01100   0.04500  -0.01200
C173      0.06600   0.04600   0.05500   0.00400   0.00200  -0.00500
C175      0.08700   0.06100   0.03600   0.00200  -0.00000  -0.00400
C177      0.13900   0.11100   0.10900  -0.03500   0.09700  -0.05300
I181      0.05420   0.06370   0.04580   0.00460   0.02530  -0.00050
Cu182     0.04060   0.06390   0.03330  -0.00620   0.01080  -0.00070
N183      0.04300   0.05000   0.02900   0.00100   0.01700   0.00200
O184      0.13500   0.06200   0.04600   0.02500   0.04800   0.01700
N185      0.04100   0.05800   0.03000  -0.00300   0.01100   0.00100
N186      0.03900   0.07000   0.04100   0.00100   0.02000   0.00900
C187      0.04500   0.04300   0.03100   0.00100   0.01900  -0.00400
C189      0.04500   0.04500   0.03100   0.00400   0.01700   0.00200
C190      0.03900   0.04400   0.03400  -0.00100   0.01400   0.00000
C191      0.04400   0.04000   0.03700  -0.00300   0.01600  -0.00800
C192      0.04800   0.05400   0.03600  -0.00200   0.01000   0.00800
C194      0.04200   0.04700   0.03200   0.00800   0.01100   0.00400
C196      0.03700   0.09100   0.03300  -0.01700   0.01000   0.00600
C198      0.03200   0.05800   0.02600   0.00300   0.01400   0.00100
C199      0.04100   0.05100   0.03100  -0.00100   0.01900  -0.00200
C200      0.06500   0.03000   0.03100   0.00500   0.01700  -0.00200
C201      0.05600   0.04500   0.03300  -0.00300   0.00800   0.00500
C203      0.09200   0.05300   0.04100   0.02700   0.04300   0.01100
C204      0.06000   0.06000   0.02900   0.00400   0.02500   0.00800
C206      0.05000   0.05700   0.03200  -0.00700   0.01500   0.00600
C208      0.03300   0.08200   0.03900  -0.00800   0.01400   0.00800
C210      0.04300   0.07200   0.03500  -0.01000   0.01000   0.00400
C212      0.04500   0.06800   0.03500  -0.01300   0.01300  -0.00000
C214      0.04700   0.07300   0.03900  -0.01200   0.01200   0.01200
C216      0.06400   0.06200   0.05400   0.01100   0.04500   0.01200
C218      0.06600   0.04600   0.05500  -0.00400   0.00200   0.00500
C220      0.08700   0.06100   0.03600  -0.00200  -0.00000   0.00400
C222      0.13900   0.11100   0.10900   0.03500   0.09700   0.05300
I226      0.05420   0.06370   0.04580   0.00460   0.02530  -0.00050
Cu227     0.04060   0.06390   0.03330  -0.00620   0.01080  -0.00070
N228      0.04300   0.05000   0.02900   0.00100   0.01700   0.00200
O229      0.13500   0.06200   0.04600   0.02500   0.04800   0.01700
N230      0.04100   0.05800   0.03000  -0.00300   0.01100   0.00100
N231      0.03900   0.07000   0.04100   0.00100   0.02000   0.00900
C232      0.04500   0.04300   0.03100   0.00100   0.01900  -0.00400
C234      0.04500   0.04500   0.03100   0.00400   0.01700   0.00200
C235      0.03900   0.04400   0.03400  -0.00100   0.01400   0.00000
C236      0.04400   0.04000   0.03700  -0.00300   0.01600  -0.00800
C237      0.04800   0.05400   0.03600  -0.00200   0.01000   0.00800
C239      0.04200   0.04700   0.03200   0.00800   0.01100   0.00400
C241      0.03700   0.09100   0.03300  -0.01700   0.01000   0.00600
C243      0.03200   0.05800   0.02600   0.00300   0.01400   0.00100
C244      0.04100   0.05100   0.03100  -0.00100   0.01900  -0.00200
C245      0.06500   0.03000   0.03100   0.00500   0.01700  -0.00200
C246      0.05600   0.04500   0.03300  -0.00300   0.00800   0.00500
C248      0.09200   0.05300   0.04100   0.02700   0.04300   0.01100
C249      0.06000   0.06000   0.02900   0.00400   0.02500   0.00800
C251      0.05000   0.05700   0.03200  -0.00700   0.01500   0.00600
C253      0.03300   0.08200   0.03900  -0.00800   0.01400   0.00800
C255      0.04300   0.07200   0.03500  -0.01000   0.01000   0.00400
C257      0.04500   0.06800   0.03500  -0.01300   0.01300  -0.00000
C259      0.04700   0.07300   0.03900  -0.01200   0.01200   0.01200
C261      0.06400   0.06200   0.05400   0.01100   0.04500   0.01200
C263      0.06600   0.04600   0.05500  -0.00400   0.00200   0.00500
C265      0.08700   0.06100   0.03600  -0.00200  -0.00000   0.00400
C267      0.13900   0.11100   0.10900   0.03500   0.09700   0.05300
I271      0.05420   0.06370   0.04580  -0.00460   0.02530   0.00050
Cu272     0.04060   0.06390   0.03330   0.00620   0.01080   0.00070
N273      0.04300   0.05000   0.02900  -0.00100   0.01700  -0.00200
O274      0.13500   0.06200   0.04600  -0.02500   0.04800  -0.01700
N275      0.04100   0.05800   0.03000   0.00300   0.01100  -0.00100
N276      0.03900   0.07000   0.04100  -0.00100   0.02000  -0.00900
C277      0.04500   0.04300   0.03100  -0.00100   0.01900   0.00400
C279      0.04500   0.04500   0.03100  -0.00400   0.01700  -0.00200
C280      0.03900   0.04400   0.03400   0.00100   0.01400   0.00000
C281      0.04400   0.04000   0.03700   0.00300   0.01600   0.00800
C282      0.04800   0.05400   0.03600   0.00200   0.01000  -0.00800
C284      0.04200   0.04700   0.03200  -0.00800   0.01100  -0.00400
C286      0.03700   0.09100   0.03300   0.01700   0.01000  -0.00600
C288      0.03200   0.05800   0.02600  -0.00300   0.01400  -0.00100
C289      0.04100   0.05100   0.03100   0.00100   0.01900   0.00200
C290      0.06500   0.03000   0.03100  -0.00500   0.01700   0.00200
C291      0.05600   0.04500   0.03300   0.00300   0.00800  -0.00500
C293      0.09200   0.05300   0.04100  -0.02700   0.04300  -0.01100
C294      0.06000   0.06000   0.02900  -0.00400   0.02500  -0.00800
C296      0.05000   0.05700   0.03200   0.00700   0.01500  -0.00600
C298      0.03300   0.08200   0.03900   0.00800   0.01400  -0.00800
C300      0.04300   0.07200   0.03500   0.01000   0.01000  -0.00400
C302      0.04500   0.06800   0.03500   0.01300   0.01300   0.00000
C304      0.04700   0.07300   0.03900   0.01200   0.01200  -0.01200
C306      0.06400   0.06200   0.05400  -0.01100   0.04500  -0.01200
C308      0.06600   0.04600   0.05500   0.00400   0.00200  -0.00500
C310      0.08700   0.06100   0.03600   0.00200  -0.00000  -0.00400
C312      0.13900   0.11100   0.10900  -0.03500   0.09700  -0.05300
I316      0.05420   0.06370   0.04580  -0.00460   0.02530   0.00050
Cu317     0.04060   0.06390   0.03330   0.00620   0.01080   0.00070
N318      0.04300   0.05000   0.02900  -0.00100   0.01700  -0.00200
O319      0.13500   0.06200   0.04600  -0.02500   0.04800  -0.01700
N320      0.04100   0.05800   0.03000   0.00300   0.01100  -0.00100
N321      0.03900   0.07000   0.04100  -0.00100   0.02000  -0.00900
C322      0.04500   0.04300   0.03100  -0.00100   0.01900   0.00400
C324      0.04500   0.04500   0.03100  -0.00400   0.01700  -0.00200
C325      0.03900   0.04400   0.03400   0.00100   0.01400   0.00000
C326      0.04400   0.04000   0.03700   0.00300   0.01600   0.00800
C327      0.04800   0.05400   0.03600   0.00200   0.01000  -0.00800
C329      0.04200   0.04700   0.03200  -0.00800   0.01100  -0.00400
C331      0.03700   0.09100   0.03300   0.01700   0.01000  -0.00600
C333      0.03200   0.05800   0.02600  -0.00300   0.01400  -0.00100
C334      0.04100   0.05100   0.03100   0.00100   0.01900   0.00200
C335      0.06500   0.03000   0.03100  -0.00500   0.01700   0.00200
C336      0.05600   0.04500   0.03300   0.00300   0.00800  -0.00500
C338      0.09200   0.05300   0.04100  -0.02700   0.04300  -0.01100
C339      0.06000   0.06000   0.02900  -0.00400   0.02500  -0.00800
C341      0.05000   0.05700   0.03200   0.00700   0.01500  -0.00600
C343      0.03300   0.08200   0.03900   0.00800   0.01400  -0.00800
C345      0.04300   0.07200   0.03500   0.01000   0.01000  -0.00400
C347      0.04500   0.06800   0.03500   0.01300   0.01300   0.00000
C349      0.04700   0.07300   0.03900   0.01200   0.01200  -0.01200
C351      0.06400   0.06200   0.05400  -0.01100   0.04500  -0.01200
C353      0.06600   0.04600   0.05500   0.00400   0.00200  -0.00500
C355      0.08700   0.06100   0.03600   0.00200  -0.00000  -0.00400
C357      0.13900   0.11100   0.10900  -0.03500   0.09700  -0.05300
loop_
_geom_bond_atom_site_label_1
_geom_bond_atom_site_label_2
_geom_bond_distance
_geom_bond_site_symmetry_2
_ccdc_geom_bond_type
I1     Cu2     2.646   .     S
I1     Cu182   2.672   .     S
Cu2    N5      2.007   .     S
Cu2    I181    2.672   .     S
Cu2    N321    2.032   .     S
Cu2    Cu182   2.598   .     S
N3     C11     1.345   .     S
N3     C18     1.333   .     S
O4     C23     1.412   .     S
O4     C42     1.403   .     S
N5     C32     1.322   .     S
N5     C34     1.372   .     S
N6     C26     1.322   .     S
N6     C28     1.331   1_545 S
N6     Cu317   2.032   .     S
C7     H8      0.930   .     S
C7     C9      1.396   .     S
C7     C18     1.396   1_565 S
C9     C14     1.410   1_565 S
C9     C20     1.478   .     S
C10    C12     1.366   .     S
C10    C16     1.369   1_545 S
C10    C18     1.514   .     S
C11    C14     1.353   .     S
C11    C19     1.488   .     S
C12    H13     0.930   .     S
C12    C26     1.350   .     S
C14    C9      1.410   1_545 S
C14    H15     0.930   .     S
C16    C10     1.369   1_565 S
C16    H17     0.930   .     S
C16    C28     1.396   .     S
C18    C7      1.396   1_545 S
C19    C21     1.388   .     S
C19    C30     1.375   .     S
C20    C24     1.389   .     S
C20    C38     1.383   .     S
C21    H22     0.930   .     S
C21    C32     1.374   .     S
C23    C36     1.360   .     S
C23    C40     1.355   .     S
C24    H25     0.929   .     S
C24    C36     1.372   .     S
C26    H27     0.930   .     S
C28    N6      1.331   1_565 S
C28    H29     0.929   .     S
C30    H31     0.931   .     S
C30    C34     1.373   .     S
C32    H33     0.931   .     S
C34    H35     0.929   .     S
C36    H37     0.930   .     S
C38    H39     0.929   .     S
C38    C40     1.398   .     S
C40    H41     0.930   .     S
C42    H43     0.960   .     S
C42    H44     0.960   .     S
C42    H45     0.959   .     S
I46    Cu47    2.646   1_645 S
I46    Cu227   2.672   .     S
Cu47   I46     2.646   1_465 S
Cu47   N50     2.007   1_455 S
Cu47   I226    2.672   .     S
Cu47   N276    2.032   .     S
Cu47   Cu227   2.598   1_465 S
N48    C56     1.345   .     S
N48    C63     1.333   .     S
O49    C68     1.412   .     S
O49    C87     1.403   .     S
N50    Cu47    2.007   1_655 S
N50    C77     1.322   .     S
N50    C79     1.372   .     S
N51    C71     1.322   .     S
N51    C73     1.331   .     S
N51    Cu272   2.032   .     S
C52    H53     0.930   .     S
C52    C54     1.396   .     S
C52    C63     1.396   .     S
C54    C59     1.410   .     S
C54    C65     1.478   .     S
C55    C57     1.366   .     S
C55    C61     1.369   .     S
C55    C63     1.514   .     S
C56    C59     1.353   .     S
C56    C64     1.488   .     S
C57    H58     0.930   .     S
C57    C71     1.350   .     S
C59    H60     0.930   .     S
C61    H62     0.930   .     S
C61    C73     1.396   .     S
C64    C66     1.388   .     S
C64    C75     1.375   .     S
C65    C69     1.389   .     S
C65    C83     1.383   .     S
C66    H67     0.930   .     S
C66    C77     1.374   .     S
C68    C81     1.360   .     S
C68    C85     1.355   .     S
C69    H70     0.929   .     S
C69    C81     1.372   .     S
C71    H72     0.930   .     S
C73    H74     0.929   .     S
C75    H76     0.931   .     S
C75    C79     1.373   .     S
C77    H78     0.931   .     S
C79    H80     0.929   .     S
C81    H82     0.930   .     S
C83    H84     0.929   .     S
C83    C85     1.398   .     S
C85    H86     0.930   .     S
C87    H88     0.960   .     S
C87    H89     0.960   1_545 S
C87    H90     0.959   .     S
H89    C87     0.960   1_565 S
I91    Cu92    2.646   .     S
I91    Cu272   2.672   1_556 S
Cu92   N95     2.007   .     S
Cu92   I271    2.672   1_556 S
Cu92   N231    2.032   .     S
Cu92   Cu272   2.598   1_556 S
N93    C101    1.345   1_554 S
N93    C108    1.333   .     S
O94    C113    1.412   .     S
O94    C132    1.403   .     S
N95    C122    1.322   .     S
N95    C124    1.372   1_556 S
N96    C116    1.322   .     S
N96    C118    1.331   1_545 S
N96    Cu227   2.032   .     S
C97    H98     0.930   .     S
C97    C99     1.396   1_554 S
C97    C108    1.396   1_565 S
C99    C97     1.396   1_556 S
C99    C104    1.410   1_565 S
C99    C110    1.478   .     S
C100   C102    1.366   .     S
C100   C106    1.369   1_545 S
C100   C108    1.514   .     S
C101   N93     1.345   1_556 S
C101   C104    1.353   .     S
C101   C109    1.488   .     S
C102   H103    0.930   .     S
C102   C116    1.350   .     S
C104   C99     1.410   1_545 S
C104   H105    0.930   .     S
C106   C100    1.369   1_565 S
C106   H107    0.930   .     S
C106   C118    1.396   .     S
C108   C97     1.396   1_545 S
C109   C111    1.388   .     S
C109   C120    1.375   1_556 S
C110   C114    1.389   .     S
C110   C128    1.383   .     S
C111   H112    0.930   .     S
C111   C122    1.374   .     S
C113   C126    1.360   .     S
C113   C130    1.355   .     S
C114   H115    0.929   .     S
C114   C126    1.372   .     S
C116   H117    0.930   .     S
C118   N96     1.331   1_565 S
C118   H119    0.929   .     S
C120   C109    1.375   1_554 S
C120   H121    0.931   .     S
C120   C124    1.373   .     S
C122   H123    0.931   .     S
C124   N95     1.372   1_554 S
C124   H125    0.929   .     S
C126   H127    0.930   .     S
C128   H129    0.929   .     S
C128   C130    1.398   .     S
C130   H131    0.930   .     S
C132   H133    0.960   .     S
C132   H134    0.960   .     S
C132   H135    0.959   .     S
I136   Cu137   2.646   1_445 S
I136   Cu317   2.672   1_556 S
Cu137  I136    2.646   1_665 S
Cu137  N140    2.007   1_655 S
Cu137  I316    2.672   1_556 S
Cu137  N186    2.032   .     S
Cu137  Cu317   2.598   1_666 S
N138   C146    1.345   1_554 S
N138   C153    1.333   .     S
O139   C158    1.412   .     S
O139   C177    1.403   .     S
N140   Cu137   2.007   1_455 S
N140   C167    1.322   .     S
N140   C169    1.372   1_556 S
N141   C161    1.322   .     S
N141   C163    1.331   .     S
N141   Cu182   2.032   .     S
C142   H143    0.930   .     S
C142   C144    1.396   1_554 S
C142   C153    1.396   .     S
C144   C142    1.396   1_556 S
C144   C149    1.410   .     S
C144   C155    1.478   .     S
C145   C147    1.366   .     S
C145   C151    1.369   .     S
C145   C153    1.514   .     S
C146   N138    1.345   1_556 S
C146   C149    1.353   .     S
C146   C154    1.488   .     S
C147   H148    0.930   .     S
C147   C161    1.350   .     S
C149   H150    0.930   .     S
C151   H152    0.930   .     S
C151   C163    1.396   .     S
C154   C156    1.388   .     S
C154   C165    1.375   1_556 S
C155   C159    1.389   .     S
C155   C173    1.383   .     S
C156   H157    0.930   .     S
C156   C167    1.374   .     S
C158   C171    1.360   .     S
C158   C175    1.355   .     S
C159   H160    0.929   .     S
C159   C171    1.372   .     S
C161   H162    0.930   .     S
C163   H164    0.929   .     S
C165   C154    1.375   1_554 S
C165   H166    0.931   .     S
C165   C169    1.373   .     S
C167   H168    0.931   .     S
C169   N140    1.372   1_554 S
C169   H170    0.929   .     S
C171   H172    0.930   .     S
C173   H174    0.929   .     S
C173   C175    1.398   .     S
C175   H176    0.930   .     S
C177   H178    0.960   .     S
C177   H179    0.960   1_545 S
C177   H180    0.959   .     S
H179   C177    0.960   1_565 S
I181   Cu182   2.646   .     S
Cu182  N185    2.007   .     S
N183   C191    1.345   .     S
N183   C198    1.333   .     S
O184   C203    1.412   .     S
O184   C222    1.403   .     S
N185   C212    1.322   .     S
N185   C214    1.372   .     S
N186   C206    1.322   .     S
N186   C208    1.331   1_565 S
C187   H188    0.930   .     S
C187   C189    1.396   .     S
C187   C198    1.396   1_545 S
C189   C194    1.410   1_545 S
C189   C200    1.478   .     S
C190   C192    1.366   .     S
C190   C196    1.369   1_565 S
C190   C198    1.514   .     S
C191   C194    1.353   .     S
C191   C199    1.488   .     S
C192   H193    0.930   .     S
C192   C206    1.350   .     S
C194   C189    1.410   1_565 S
C194   H195    0.930   .     S
C196   C190    1.369   1_545 S
C196   H197    0.930   .     S
C196   C208    1.396   .     S
C198   C187    1.396   1_565 S
C199   C201    1.388   .     S
C199   C210    1.375   .     S
C200   C204    1.389   .     S
C200   C218    1.383   .     S
C201   H202    0.930   .     S
C201   C212    1.374   .     S
C203   C216    1.360   .     S
C203   C220    1.355   .     S
C204   H205    0.929   .     S
C204   C216    1.372   .     S
C206   H207    0.930   .     S
C208   N186    1.331   1_545 S
C208   H209    0.929   .     S
C210   H211    0.931   .     S
C210   C214    1.373   .     S
C212   H213    0.931   .     S
C214   H215    0.929   .     S
C216   H217    0.930   .     S
C218   H219    0.929   .     S
C218   C220    1.398   .     S
C220   H221    0.930   .     S
C222   H223    0.960   .     S
C222   H224    0.960   .     S
C222   H225    0.959   .     S
I226   Cu227   2.646   1_465 S
Cu227  I226    2.646   1_645 S
Cu227  N230    2.007   1_655 S
Cu227  Cu47    2.598   1_645 S
N228   C236    1.345   .     S
N228   C243    1.333   .     S
O229   C248    1.412   .     S
O229   C267    1.403   .     S
N230   Cu227   2.007   1_455 S
N230   C257    1.322   .     S
N230   C259    1.372   .     S
N231   C251    1.322   .     S
N231   C253    1.331   .     S
C232   H233    0.930   .     S
C232   C234    1.396   .     S
C232   C243    1.396   .     S
C234   C239    1.410   .     S
C234   C245    1.478   .     S
C235   C237    1.366   .     S
C235   C241    1.369   .     S
C235   C243    1.514   .     S
C236   C239    1.353   .     S
C236   C244    1.488   .     S
C237   H238    0.930   .     S
C237   C251    1.350   .     S
C239   H240    0.930   .     S
C241   H242    0.930   .     S
C241   C253    1.396   .     S
C244   C246    1.388   .     S
C244   C255    1.375   .     S
C245   C249    1.389   .     S
C245   C263    1.383   .     S
C246   H247    0.930   .     S
C246   C257    1.374   .     S
C248   C261    1.360   .     S
C248   C265    1.355   .     S
C249   H250    0.929   .     S
C249   C261    1.372   .     S
C251   H252    0.930   .     S
C253   H254    0.929   .     S
C255   H256    0.931   .     S
C255   C259    1.373   .     S
C257   H258    0.931   .     S
C259   H260    0.929   .     S
C261   H262    0.930   .     S
C263   H264    0.929   .     S
C263   C265    1.398   .     S
C265   H266    0.930   .     S
C267   H268    0.960   .     S
C267   H269    0.960   1_565 S
C267   H270    0.959   .     S
H269   C267    0.960   1_545 S
I271   Cu272   2.646   .     S
I271   Cu92    2.672   1_554 S
Cu272  N275    2.007   .     S
Cu272  I91     2.672   1_554 S
Cu272  Cu92    2.598   1_554 S
N273   C281    1.345   1_556 S
N273   C288    1.333   .     S
O274   C293    1.412   .     S
O274   C312    1.403   .     S
N275   C302    1.322   .     S
N275   C304    1.372   1_554 S
N276   C296    1.322   .     S
N276   C298    1.331   1_565 S
C277   H278    0.930   .     S
C277   C279    1.396   1_556 S
C277   C288    1.396   1_545 S
C279   C277    1.396   1_554 S
C279   C284    1.410   1_545 S
C279   C290    1.478   .     S
C280   C282    1.366   .     S
C280   C286    1.369   1_565 S
C280   C288    1.514   .     S
C281   N273    1.345   1_554 S
C281   C284    1.353   .     S
C281   C289    1.488   .     S
C282   H283    0.930   .     S
C282   C296    1.350   .     S
C284   C279    1.410   1_565 S
C284   H285    0.930   .     S
C286   C280    1.369   1_545 S
C286   H287    0.930   .     S
C286   C298    1.396   .     S
C288   C277    1.396   1_565 S
C289   C291    1.388   .     S
C289   C300    1.375   1_554 S
C290   C294    1.389   .     S
C290   C308    1.383   .     S
C291   H292    0.930   .     S
C291   C302    1.374   .     S
C293   C306    1.360   .     S
C293   C310    1.355   .     S
C294   H295    0.929   .     S
C294   C306    1.372   .     S
C296   H297    0.930   .     S
C298   N276    1.331   1_545 S
C298   H299    0.929   .     S
C300   C289    1.375   1_556 S
C300   H301    0.931   .     S
C300   C304    1.373   .     S
C302   H303    0.931   .     S
C304   N275    1.372   1_556 S
C304   H305    0.929   .     S
C306   H307    0.930   .     S
C308   H309    0.929   .     S
C308   C310    1.398   .     S
C310   H311    0.930   .     S
C312   H313    0.960   .     S
C312   H314    0.960   .     S
C312   H315    0.959   .     S
I316   Cu317   2.646   1_665 S
I316   Cu137   2.672   1_554 S
Cu317  I316    2.646   1_445 S
Cu317  N320    2.007   1_455 S
Cu317  I136    2.672   1_554 S
Cu317  Cu137   2.598   1_444 S
N318   C326    1.345   1_556 S
N318   C333    1.333   .     S
O319   C338    1.412   .     S
O319   C357    1.403   .     S
N320   Cu317   2.007   1_655 S
N320   C347    1.322   .     S
N320   C349    1.372   1_554 S
N321   C341    1.322   .     S
N321   C343    1.331   .     S
C322   H323    0.930   .     S
C322   C324    1.396   1_556 S
C322   C333    1.396   .     S
C324   C322    1.396   1_554 S
C324   C329    1.410   .     S
C324   C335    1.478   .     S
C325   C327    1.366   .     S
C325   C331    1.369   .     S
C325   C333    1.514   .     S
C326   N318    1.345   1_554 S
C326   C329    1.353   .     S
C326   C334    1.488   .     S
C327   H328    0.930   .     S
C327   C341    1.350   .     S
C329   H330    0.930   .     S
C331   H332    0.930   .     S
C331   C343    1.396   .     S
C334   C336    1.388   .     S
C334   C345    1.375   1_554 S
C335   C339    1.389   .     S
C335   C353    1.383   .     S
C336   H337    0.930   .     S
C336   C347    1.374   .     S
C338   C351    1.360   .     S
C338   C355    1.355   .     S
C339   H340    0.929   .     S
C339   C351    1.372   .     S
C341   H342    0.930   .     S
C343   H344    0.929   .     S
C345   C334    1.375   1_556 S
C345   H346    0.931   .     S
C345   C349    1.373   .     S
C347   H348    0.931   .     S
C349   N320    1.372   1_556 S
C349   H350    0.929   .     S
C351   H352    0.930   .     S
C353   H354    0.929   .     S
C353   C355    1.398   .     S
C355   H356    0.930   .     S
C357   H358    0.960   .     S
C357   H359    0.960   1_565 S
C357   H360    0.959   .     S
H359   C357    0.960   1_545 S
