data_ZALZOE_FSR
_audit_creation_date              2024-06-11
_audit_creation_method            'Materials Studio'
_symmetry_space_group_name_H-M    'P1'
_symmetry_Int_Tables_number       1
_symmetry_cell_setting            triclinic
loop_
_symmetry_equiv_pos_as_xyz
  x,y,z
_cell_length_a                    23.9550
_cell_length_b                    12.8120
_cell_length_c                    17.9230
_cell_angle_alpha                 90.0000
_cell_angle_beta                  114.1310
_cell_angle_gamma                 90.0000
loop_
_atom_site_label
_atom_site_type_symbol
_atom_site_fract_x
_atom_site_fract_y
_atom_site_fract_z
_atom_site_U_iso_or_equiv
_atom_site_adp_type
_atom_site_occupancy
I1     I     0.45601   0.64182   0.03344   0.02890  Uani   1.00
Cu2    Cu    0.50401   0.45324   0.06714   0.02558  Uani   1.00
O3     O     0.79850   0.87390   0.77860   0.03917  Uani   1.00
N4     N     0.93410   0.14270   0.55970   0.02426  Uani   1.00
N5     N     0.57230   0.45400   0.18020   0.02811  Uani   1.00
N6     N     0.75550   0.38580   0.44220   0.02175  Uani   1.00
C7     C     0.71560   0.46700   0.42160   0.02208  Uani   1.00
C8     C     0.72200   0.55080   0.47330   0.02336  Uani   1.00
H9     H     0.69410   0.60560   0.45650   0.02800  Uiso   1.00
C10    C     0.76980   0.55310   0.55000   0.02025  Uani   1.00
C11    C     0.84030   0.22640   0.47580   0.02425  Uani   1.00
H12    H     0.80620   0.22780   0.42620   0.02900  Uiso   1.00
C13    C     0.61440   0.52400   0.31570   0.02349  Uani   1.00
H14    H     0.61020   0.56980   0.35340   0.02800  Uiso   1.00
C15    C     0.80980   0.46780   0.57230   0.02261  Uani   1.00
H16    H     0.84140   0.46440   0.62420   0.02700  Uiso   1.00
C17    C     0.80150   0.38830   0.51600   0.02215  Uani   1.00
C18    C     0.66480   0.46020   0.33870   0.02362  Uani   1.00
C19    C     0.88360   0.15020   0.48970   0.02739  Uani   1.00
H20    H     0.87770   0.10130   0.44880   0.03300  Uiso   1.00
C21    C     0.84660   0.30090   0.53400   0.02097  Uani   1.00
C22    C     0.93910   0.21330   0.61760   0.02904  Uani   1.00
H23    H     0.97310   0.20930   0.66720   0.03500  Uiso   1.00
C24    C     0.77670   0.64090   0.60680   0.02469  Uani   1.00
C25    C     0.62050   0.39060   0.20310   0.03000  Uani   1.00
H26    H     0.62310   0.34420   0.16480   0.03600  Uiso   1.00
C27    C     0.66730   0.39020   0.28180   0.02917  Uani   1.00
H28    H     0.69960   0.34340   0.29550   0.03500  Uiso   1.00
C29    C     0.72640   0.69870   0.60280   0.02652  Uani   1.00
H30    H     0.68830   0.68470   0.56130   0.03200  Uiso   1.00
C31    C     0.89760   0.29020   0.60810   0.02840  Uani   1.00
H32    H     0.90320   0.33570   0.65100   0.03400  Uiso   1.00
C33    C     0.56970   0.52040   0.23650   0.02902  Uani   1.00
H34    H     0.53670   0.56580   0.22180   0.03500  Uiso   1.00
C35    C     0.78780   0.79960   0.71920   0.03115  Uani   1.00
C36    C     0.73150   0.77650   0.65890   0.03064  Uani   1.00
H37    H     0.69700   0.81270   0.65570   0.03700  Uiso   1.00
C38    C     0.83410   0.66800   0.66820   0.03518  Uani   1.00
H39    H     0.86900   0.63300   0.67120   0.04200  Uiso   1.00
C40    C     0.83940   0.74510   0.72360   0.03598  Uani   1.00
H41    H     0.87750   0.76110   0.76430   0.04300  Uiso   1.00
C42    C     0.74710   0.93520   0.77300   0.05254  Uani   1.00
H43    H     0.72790   0.96490   0.71920   0.07900  Uiso   1.00
H44    H     0.76060   0.99020   0.81280   0.07900  Uiso   1.00
H45    H     0.71830   0.89170   0.78310   0.07900  Uiso   1.00
I46    I     0.95601   0.14182   0.03344   0.02890  Uani   1.00
Cu47   Cu    0.00401   0.95324   0.06714   0.02558  Uani   1.00
O48    O     0.29850   0.37390   0.77860   0.03917  Uani   1.00
N49    N     0.43410   0.64270   0.55970   0.02426  Uani   1.00
N50    N     0.07230   0.95400   0.18020   0.02811  Uani   1.00
N51    N     0.25550   0.88580   0.44220   0.02175  Uani   1.00
C52    C     0.21560   0.96700   0.42160   0.02208  Uani   1.00
C53    C     0.22200   0.05080   0.47330   0.02336  Uani   1.00
H54    H     0.19410   0.10560   0.45650   0.02800  Uiso   1.00
C55    C     0.26980   0.05310   0.55000   0.02025  Uani   1.00
C56    C     0.34030   0.72640   0.47580   0.02425  Uani   1.00
H57    H     0.30620   0.72780   0.42620   0.02900  Uiso   1.00
C58    C     0.11440   0.02400   0.31570   0.02349  Uani   1.00
H59    H     0.11020   0.06980   0.35340   0.02800  Uiso   1.00
C60    C     0.30980   0.96780   0.57230   0.02261  Uani   1.00
H61    H     0.34140   0.96440   0.62420   0.02700  Uiso   1.00
C62    C     0.30150   0.88830   0.51600   0.02215  Uani   1.00
C63    C     0.16480   0.96020   0.33870   0.02362  Uani   1.00
C64    C     0.38360   0.65020   0.48970   0.02739  Uani   1.00
H65    H     0.37770   0.60130   0.44880   0.03300  Uiso   1.00
C66    C     0.34660   0.80090   0.53400   0.02097  Uani   1.00
C67    C     0.43910   0.71330   0.61760   0.02904  Uani   1.00
H68    H     0.47310   0.70930   0.66720   0.03500  Uiso   1.00
C69    C     0.27670   0.14090   0.60680   0.02469  Uani   1.00
C70    C     0.12050   0.89060   0.20310   0.03000  Uani   1.00
H71    H     0.12310   0.84420   0.16480   0.03600  Uiso   1.00
C72    C     0.16730   0.89020   0.28180   0.02917  Uani   1.00
H73    H     0.19960   0.84340   0.29550   0.03500  Uiso   1.00
C74    C     0.22640   0.19870   0.60280   0.02652  Uani   1.00
H75    H     0.18830   0.18470   0.56130   0.03200  Uiso   1.00
C76    C     0.39760   0.79020   0.60810   0.02840  Uani   1.00
H77    H     0.40320   0.83570   0.65100   0.03400  Uiso   1.00
C78    C     0.06970   0.02040   0.23650   0.02902  Uani   1.00
H79    H     0.03670   0.06580   0.22180   0.03500  Uiso   1.00
C80    C     0.28780   0.29960   0.71920   0.03115  Uani   1.00
C81    C     0.23150   0.27650   0.65890   0.03064  Uani   1.00
H82    H     0.19700   0.31270   0.65570   0.03700  Uiso   1.00
C83    C     0.33410   0.16800   0.66820   0.03518  Uani   1.00
H84    H     0.36900   0.13300   0.67120   0.04200  Uiso   1.00
C85    C     0.33940   0.24510   0.72360   0.03598  Uani   1.00
H86    H     0.37750   0.26110   0.76430   0.04300  Uiso   1.00
C87    C     0.24710   0.43520   0.77300   0.05254  Uani   1.00
H88    H     0.22790   0.46490   0.71920   0.07900  Uiso   1.00
H89    H     0.26060   0.49020   0.81280   0.07900  Uiso   1.00
H90    H     0.21830   0.39170   0.78310   0.07900  Uiso   1.00
I91    I     0.54399   0.64182   0.46656   0.02890  Uani   1.00
Cu92   Cu    0.49599   0.45324   0.43286   0.02558  Uani   1.00
O93    O     0.20150   0.87390   0.72140   0.03917  Uani   1.00
N94    N     0.06590   0.14270   0.94030   0.02426  Uani   1.00
N95    N     0.42770   0.45400   0.31980   0.02811  Uani   1.00
N96    N     0.24450   0.38580   0.05780   0.02175  Uani   1.00
C97    C     0.28440   0.46700   0.07840   0.02208  Uani   1.00
C98    C     0.27800   0.55080   0.02670   0.02336  Uani   1.00
H99    H     0.30590   0.60560   0.04350   0.02800  Uiso   1.00
C100   C     0.23020   0.55310   0.95000   0.02025  Uani   1.00
C101   C     0.15970   0.22640   0.02420   0.02425  Uani   1.00
H102   H     0.19380   0.22780   0.07380   0.02900  Uiso   1.00
C103   C     0.38560   0.52400   0.18430   0.02349  Uani   1.00
H104   H     0.38980   0.56980   0.14660   0.02800  Uiso   1.00
C105   C     0.19020   0.46780   0.92770   0.02261  Uani   1.00
H106   H     0.15860   0.46440   0.87580   0.02700  Uiso   1.00
C107   C     0.19850   0.38830   0.98400   0.02215  Uani   1.00
C108   C     0.33520   0.46020   0.16130   0.02362  Uani   1.00
C109   C     0.11640   0.15020   0.01030   0.02739  Uani   1.00
H110   H     0.12230   0.10130   0.05120   0.03300  Uiso   1.00
C111   C     0.15340   0.30090   0.96600   0.02097  Uani   1.00
C112   C     0.06090   0.21330   0.88240   0.02904  Uani   1.00
H113   H     0.02690   0.20930   0.83280   0.03500  Uiso   1.00
C114   C     0.22330   0.64090   0.89320   0.02469  Uani   1.00
C115   C     0.37950   0.39060   0.29690   0.03000  Uani   1.00
H116   H     0.37690   0.34420   0.33520   0.03600  Uiso   1.00
C117   C     0.33270   0.39020   0.21820   0.02917  Uani   1.00
H118   H     0.30040   0.34340   0.20450   0.03500  Uiso   1.00
C119   C     0.27360   0.69870   0.89720   0.02652  Uani   1.00
H120   H     0.31170   0.68470   0.93870   0.03200  Uiso   1.00
C121   C     0.10240   0.29020   0.89190   0.02840  Uani   1.00
H122   H     0.09680   0.33570   0.84900   0.03400  Uiso   1.00
C123   C     0.43030   0.52040   0.26350   0.02902  Uani   1.00
H124   H     0.46330   0.56580   0.27820   0.03500  Uiso   1.00
C125   C     0.21220   0.79960   0.78080   0.03115  Uani   1.00
C126   C     0.26850   0.77650   0.84110   0.03064  Uani   1.00
H127   H     0.30300   0.81270   0.84430   0.03700  Uiso   1.00
C128   C     0.16590   0.66800   0.83180   0.03518  Uani   1.00
H129   H     0.13100   0.63300   0.82880   0.04200  Uiso   1.00
C130   C     0.16060   0.74510   0.77640   0.03598  Uani   1.00
H131   H     0.12250   0.76110   0.73570   0.04300  Uiso   1.00
C132   C     0.25290   0.93520   0.72700   0.05254  Uani   1.00
H133   H     0.27210   0.96490   0.78080   0.07900  Uiso   1.00
H134   H     0.23940   0.99020   0.68720   0.07900  Uiso   1.00
H135   H     0.28170   0.89170   0.71690   0.07900  Uiso   1.00
I136   I     0.04399   0.14182   0.46656   0.02890  Uani   1.00
Cu137  Cu    0.99599   0.95324   0.43286   0.02558  Uani   1.00
O138   O     0.70150   0.37390   0.72140   0.03917  Uani   1.00
N139   N     0.56590   0.64270   0.94030   0.02426  Uani   1.00
N140   N     0.92770   0.95400   0.31980   0.02811  Uani   1.00
N141   N     0.74450   0.88580   0.05780   0.02175  Uani   1.00
C142   C     0.78440   0.96700   0.07840   0.02208  Uani   1.00
C143   C     0.77800   0.05080   0.02670   0.02336  Uani   1.00
H144   H     0.80590   0.10560   0.04350   0.02800  Uiso   1.00
C145   C     0.73020   0.05310   0.95000   0.02025  Uani   1.00
C146   C     0.65970   0.72640   0.02420   0.02425  Uani   1.00
H147   H     0.69380   0.72780   0.07380   0.02900  Uiso   1.00
C148   C     0.88560   0.02400   0.18430   0.02349  Uani   1.00
H149   H     0.88980   0.06980   0.14660   0.02800  Uiso   1.00
C150   C     0.69020   0.96780   0.92770   0.02261  Uani   1.00
H151   H     0.65860   0.96440   0.87580   0.02700  Uiso   1.00
C152   C     0.69850   0.88830   0.98400   0.02215  Uani   1.00
C153   C     0.83520   0.96020   0.16130   0.02362  Uani   1.00
C154   C     0.61640   0.65020   0.01030   0.02739  Uani   1.00
H155   H     0.62230   0.60130   0.05120   0.03300  Uiso   1.00
C156   C     0.65340   0.80090   0.96600   0.02097  Uani   1.00
C157   C     0.56090   0.71330   0.88240   0.02904  Uani   1.00
H158   H     0.52690   0.70930   0.83280   0.03500  Uiso   1.00
C159   C     0.72330   0.14090   0.89320   0.02469  Uani   1.00
C160   C     0.87950   0.89060   0.29690   0.03000  Uani   1.00
H161   H     0.87690   0.84420   0.33520   0.03600  Uiso   1.00
C162   C     0.83270   0.89020   0.21820   0.02917  Uani   1.00
H163   H     0.80040   0.84340   0.20450   0.03500  Uiso   1.00
C164   C     0.77360   0.19870   0.89720   0.02652  Uani   1.00
H165   H     0.81170   0.18470   0.93870   0.03200  Uiso   1.00
C166   C     0.60240   0.79020   0.89190   0.02840  Uani   1.00
H167   H     0.59680   0.83570   0.84900   0.03400  Uiso   1.00
C168   C     0.93030   0.02040   0.26350   0.02902  Uani   1.00
H169   H     0.96330   0.06580   0.27820   0.03500  Uiso   1.00
C170   C     0.71220   0.29960   0.78080   0.03115  Uani   1.00
C171   C     0.76850   0.27650   0.84110   0.03064  Uani   1.00
H172   H     0.80300   0.31270   0.84430   0.03700  Uiso   1.00
C173   C     0.66590   0.16800   0.83180   0.03518  Uani   1.00
H174   H     0.63100   0.13300   0.82880   0.04200  Uiso   1.00
C175   C     0.66060   0.24510   0.77640   0.03598  Uani   1.00
H176   H     0.62250   0.26110   0.73570   0.04300  Uiso   1.00
C177   C     0.75290   0.43520   0.72700   0.05254  Uani   1.00
H178   H     0.77210   0.46490   0.78080   0.07900  Uiso   1.00
H179   H     0.73940   0.49020   0.68720   0.07900  Uiso   1.00
H180   H     0.78170   0.39170   0.71690   0.07900  Uiso   1.00
I181   I     0.54399   0.35818   0.96656   0.02890  Uani   1.00
Cu182  Cu    0.49599   0.54676   0.93286   0.02558  Uani   1.00
O183   O     0.20150   0.12610   0.22140   0.03917  Uani   1.00
N184   N     0.06590   0.85730   0.44030   0.02426  Uani   1.00
N185   N     0.42770   0.54600   0.81980   0.02811  Uani   1.00
N186   N     0.24450   0.61420   0.55780   0.02175  Uani   1.00
C187   C     0.28440   0.53300   0.57840   0.02208  Uani   1.00
C188   C     0.27800   0.44920   0.52670   0.02336  Uani   1.00
H189   H     0.30590   0.39440   0.54350   0.02800  Uiso   1.00
C190   C     0.23020   0.44690   0.45000   0.02025  Uani   1.00
C191   C     0.15970   0.77360   0.52420   0.02425  Uani   1.00
H192   H     0.19380   0.77220   0.57380   0.02900  Uiso   1.00
C193   C     0.38560   0.47600   0.68430   0.02349  Uani   1.00
H194   H     0.38980   0.43020   0.64660   0.02800  Uiso   1.00
C195   C     0.19020   0.53220   0.42770   0.02261  Uani   1.00
H196   H     0.15860   0.53560   0.37580   0.02700  Uiso   1.00
C197   C     0.19850   0.61170   0.48400   0.02215  Uani   1.00
C198   C     0.33520   0.53980   0.66130   0.02362  Uani   1.00
C199   C     0.11640   0.84980   0.51030   0.02739  Uani   1.00
H200   H     0.12230   0.89870   0.55120   0.03300  Uiso   1.00
C201   C     0.15340   0.69910   0.46600   0.02097  Uani   1.00
C202   C     0.06090   0.78670   0.38240   0.02904  Uani   1.00
H203   H     0.02690   0.79070   0.33280   0.03500  Uiso   1.00
C204   C     0.22330   0.35910   0.39320   0.02469  Uani   1.00
C205   C     0.37950   0.60940   0.79690   0.03000  Uani   1.00
H206   H     0.37690   0.65580   0.83520   0.03600  Uiso   1.00
C207   C     0.33270   0.60980   0.71820   0.02917  Uani   1.00
H208   H     0.30040   0.65660   0.70450   0.03500  Uiso   1.00
C209   C     0.27360   0.30130   0.39720   0.02652  Uani   1.00
H210   H     0.31170   0.31530   0.43870   0.03200  Uiso   1.00
C211   C     0.10240   0.70980   0.39190   0.02840  Uani   1.00
H212   H     0.09680   0.66430   0.34900   0.03400  Uiso   1.00
C213   C     0.43030   0.47960   0.76350   0.02902  Uani   1.00
H214   H     0.46330   0.43420   0.77820   0.03500  Uiso   1.00
C215   C     0.21220   0.20040   0.28080   0.03115  Uani   1.00
C216   C     0.26850   0.22350   0.34110   0.03064  Uani   1.00
H217   H     0.30300   0.18730   0.34430   0.03700  Uiso   1.00
C218   C     0.16590   0.33200   0.33180   0.03518  Uani   1.00
H219   H     0.13100   0.36700   0.32880   0.04200  Uiso   1.00
C220   C     0.16060   0.25490   0.27640   0.03598  Uani   1.00
H221   H     0.12250   0.23890   0.23570   0.04300  Uiso   1.00
C222   C     0.25290   0.06480   0.22700   0.05254  Uani   1.00
H223   H     0.27210   0.03510   0.28080   0.07900  Uiso   1.00
H224   H     0.23940   0.00980   0.18720   0.07900  Uiso   1.00
H225   H     0.28170   0.10830   0.21690   0.07900  Uiso   1.00
I226   I     0.04399   0.85818   0.96656   0.02890  Uani   1.00
Cu227  Cu    0.99599   0.04676   0.93286   0.02558  Uani   1.00
O228   O     0.70150   0.62610   0.22140   0.03917  Uani   1.00
N229   N     0.56590   0.35730   0.44030   0.02426  Uani   1.00
N230   N     0.92770   0.04600   0.81980   0.02811  Uani   1.00
N231   N     0.74450   0.11420   0.55780   0.02175  Uani   1.00
C232   C     0.78440   0.03300   0.57840   0.02208  Uani   1.00
C233   C     0.77800   0.94920   0.52670   0.02336  Uani   1.00
H234   H     0.80590   0.89440   0.54350   0.02800  Uiso   1.00
C235   C     0.73020   0.94690   0.45000   0.02025  Uani   1.00
C236   C     0.65970   0.27360   0.52420   0.02425  Uani   1.00
H237   H     0.69380   0.27220   0.57380   0.02900  Uiso   1.00
C238   C     0.88560   0.97600   0.68430   0.02349  Uani   1.00
H239   H     0.88980   0.93020   0.64660   0.02800  Uiso   1.00
C240   C     0.69020   0.03220   0.42770   0.02261  Uani   1.00
H241   H     0.65860   0.03560   0.37580   0.02700  Uiso   1.00
C242   C     0.69850   0.11170   0.48400   0.02215  Uani   1.00
C243   C     0.83520   0.03980   0.66130   0.02362  Uani   1.00
C244   C     0.61640   0.34980   0.51030   0.02739  Uani   1.00
H245   H     0.62230   0.39870   0.55120   0.03300  Uiso   1.00
C246   C     0.65340   0.19910   0.46600   0.02097  Uani   1.00
C247   C     0.56090   0.28670   0.38240   0.02904  Uani   1.00
H248   H     0.52690   0.29070   0.33280   0.03500  Uiso   1.00
C249   C     0.72330   0.85910   0.39320   0.02469  Uani   1.00
C250   C     0.87950   0.10940   0.79690   0.03000  Uani   1.00
H251   H     0.87690   0.15580   0.83520   0.03600  Uiso   1.00
C252   C     0.83270   0.10980   0.71820   0.02917  Uani   1.00
H253   H     0.80040   0.15660   0.70450   0.03500  Uiso   1.00
C254   C     0.77360   0.80130   0.39720   0.02652  Uani   1.00
H255   H     0.81170   0.81530   0.43870   0.03200  Uiso   1.00
C256   C     0.60240   0.20980   0.39190   0.02840  Uani   1.00
H257   H     0.59680   0.16430   0.34900   0.03400  Uiso   1.00
C258   C     0.93030   0.97960   0.76350   0.02902  Uani   1.00
H259   H     0.96330   0.93420   0.77820   0.03500  Uiso   1.00
C260   C     0.71220   0.70040   0.28080   0.03115  Uani   1.00
C261   C     0.76850   0.72350   0.34110   0.03064  Uani   1.00
H262   H     0.80300   0.68730   0.34430   0.03700  Uiso   1.00
C263   C     0.66590   0.83200   0.33180   0.03518  Uani   1.00
H264   H     0.63100   0.86700   0.32880   0.04200  Uiso   1.00
C265   C     0.66060   0.75490   0.27640   0.03598  Uani   1.00
H266   H     0.62250   0.73890   0.23570   0.04300  Uiso   1.00
C267   C     0.75290   0.56480   0.22700   0.05254  Uani   1.00
H268   H     0.77210   0.53510   0.28080   0.07900  Uiso   1.00
H269   H     0.73940   0.50980   0.18720   0.07900  Uiso   1.00
H270   H     0.78170   0.60830   0.21690   0.07900  Uiso   1.00
I271   I     0.45601   0.35818   0.53344   0.02890  Uani   1.00
Cu272  Cu    0.50401   0.54676   0.56714   0.02558  Uani   1.00
O273   O     0.79850   0.12610   0.27860   0.03917  Uani   1.00
N274   N     0.93410   0.85730   0.05970   0.02426  Uani   1.00
N275   N     0.57230   0.54600   0.68020   0.02811  Uani   1.00
N276   N     0.75550   0.61420   0.94220   0.02175  Uani   1.00
C277   C     0.71560   0.53300   0.92160   0.02208  Uani   1.00
C278   C     0.72200   0.44920   0.97330   0.02336  Uani   1.00
H279   H     0.69410   0.39440   0.95650   0.02800  Uiso   1.00
C280   C     0.76980   0.44690   0.05000   0.02025  Uani   1.00
C281   C     0.84030   0.77360   0.97580   0.02425  Uani   1.00
H282   H     0.80620   0.77220   0.92620   0.02900  Uiso   1.00
C283   C     0.61440   0.47600   0.81570   0.02349  Uani   1.00
H284   H     0.61020   0.43020   0.85340   0.02800  Uiso   1.00
C285   C     0.80980   0.53220   0.07230   0.02261  Uani   1.00
H286   H     0.84140   0.53560   0.12420   0.02700  Uiso   1.00
C287   C     0.80150   0.61170   0.01600   0.02215  Uani   1.00
C288   C     0.66480   0.53980   0.83870   0.02362  Uani   1.00
C289   C     0.88360   0.84980   0.98970   0.02739  Uani   1.00
H290   H     0.87770   0.89870   0.94880   0.03300  Uiso   1.00
C291   C     0.84660   0.69910   0.03400   0.02097  Uani   1.00
C292   C     0.93910   0.78670   0.11760   0.02904  Uani   1.00
H293   H     0.97310   0.79070   0.16720   0.03500  Uiso   1.00
C294   C     0.77670   0.35910   0.10680   0.02469  Uani   1.00
C295   C     0.62050   0.60940   0.70310   0.03000  Uani   1.00
H296   H     0.62310   0.65580   0.66480   0.03600  Uiso   1.00
C297   C     0.66730   0.60980   0.78180   0.02917  Uani   1.00
H298   H     0.69960   0.65660   0.79550   0.03500  Uiso   1.00
C299   C     0.72640   0.30130   0.10280   0.02652  Uani   1.00
H300   H     0.68830   0.31530   0.06130   0.03200  Uiso   1.00
C301   C     0.89760   0.70980   0.10810   0.02840  Uani   1.00
H302   H     0.90320   0.66430   0.15100   0.03400  Uiso   1.00
C303   C     0.56970   0.47960   0.73650   0.02902  Uani   1.00
H304   H     0.53670   0.43420   0.72180   0.03500  Uiso   1.00
C305   C     0.78780   0.20040   0.21920   0.03115  Uani   1.00
C306   C     0.73150   0.22350   0.15890   0.03064  Uani   1.00
H307   H     0.69700   0.18730   0.15570   0.03700  Uiso   1.00
C308   C     0.83410   0.33200   0.16820   0.03518  Uani   1.00
H309   H     0.86900   0.36700   0.17120   0.04200  Uiso   1.00
C310   C     0.83940   0.25490   0.22360   0.03598  Uani   1.00
H311   H     0.87750   0.23890   0.26430   0.04300  Uiso   1.00
C312   C     0.74710   0.06480   0.27300   0.05254  Uani   1.00
H313   H     0.72790   0.03510   0.21920   0.07900  Uiso   1.00
H314   H     0.76060   0.00980   0.31280   0.07900  Uiso   1.00
H315   H     0.71830   0.10830   0.28310   0.07900  Uiso   1.00
I316   I     0.95601   0.85818   0.53344   0.02890  Uani   1.00
Cu317  Cu    0.00401   0.04676   0.56714   0.02558  Uani   1.00
O318   O     0.29850   0.62610   0.27860   0.03917  Uani   1.00
N319   N     0.43410   0.35730   0.05970   0.02426  Uani   1.00
N320   N     0.07230   0.04600   0.68020   0.02811  Uani   1.00
N321   N     0.25550   0.11420   0.94220   0.02175  Uani   1.00
C322   C     0.21560   0.03300   0.92160   0.02208  Uani   1.00
C323   C     0.22200   0.94920   0.97330   0.02336  Uani   1.00
H324   H     0.19410   0.89440   0.95650   0.02800  Uiso   1.00
C325   C     0.26980   0.94690   0.05000   0.02025  Uani   1.00
C326   C     0.34030   0.27360   0.97580   0.02425  Uani   1.00
H327   H     0.30620   0.27220   0.92620   0.02900  Uiso   1.00
C328   C     0.11440   0.97600   0.81570   0.02349  Uani   1.00
H329   H     0.11020   0.93020   0.85340   0.02800  Uiso   1.00
C330   C     0.30980   0.03220   0.07230   0.02261  Uani   1.00
H331   H     0.34140   0.03560   0.12420   0.02700  Uiso   1.00
C332   C     0.30150   0.11170   0.01600   0.02215  Uani   1.00
C333   C     0.16480   0.03980   0.83870   0.02362  Uani   1.00
C334   C     0.38360   0.34980   0.98970   0.02739  Uani   1.00
H335   H     0.37770   0.39870   0.94880   0.03300  Uiso   1.00
C336   C     0.34660   0.19910   0.03400   0.02097  Uani   1.00
C337   C     0.43910   0.28670   0.11760   0.02904  Uani   1.00
H338   H     0.47310   0.29070   0.16720   0.03500  Uiso   1.00
C339   C     0.27670   0.85910   0.10680   0.02469  Uani   1.00
C340   C     0.12050   0.10940   0.70310   0.03000  Uani   1.00
H341   H     0.12310   0.15580   0.66480   0.03600  Uiso   1.00
C342   C     0.16730   0.10980   0.78180   0.02917  Uani   1.00
H343   H     0.19960   0.15660   0.79550   0.03500  Uiso   1.00
C344   C     0.22640   0.80130   0.10280   0.02652  Uani   1.00
H345   H     0.18830   0.81530   0.06130   0.03200  Uiso   1.00
C346   C     0.39760   0.20980   0.10810   0.02840  Uani   1.00
H347   H     0.40320   0.16430   0.15100   0.03400  Uiso   1.00
C348   C     0.06970   0.97960   0.73650   0.02902  Uani   1.00
H349   H     0.03670   0.93420   0.72180   0.03500  Uiso   1.00
C350   C     0.28780   0.70040   0.21920   0.03115  Uani   1.00
C351   C     0.23150   0.72350   0.15890   0.03064  Uani   1.00
H352   H     0.19700   0.68730   0.15570   0.03700  Uiso   1.00
C353   C     0.33410   0.83200   0.16820   0.03518  Uani   1.00
H354   H     0.36900   0.86700   0.17120   0.04200  Uiso   1.00
C355   C     0.33940   0.75490   0.22360   0.03598  Uani   1.00
H356   H     0.37750   0.73890   0.26430   0.04300  Uiso   1.00
C357   C     0.24710   0.56480   0.27300   0.05254  Uani   1.00
H358   H     0.22790   0.53510   0.21920   0.07900  Uiso   1.00
H359   H     0.26060   0.50980   0.31280   0.07900  Uiso   1.00
H360   H     0.21830   0.60830   0.28310   0.07900  Uiso   1.00
loop_
_atom_site_aniso_label
_atom_site_aniso_U_11
_atom_site_aniso_U_22
_atom_site_aniso_U_33
_atom_site_aniso_U_12
_atom_site_aniso_U_13
_atom_site_aniso_U_23
I1        0.02900   0.03110   0.03060   0.00368   0.01626   0.00378
Cu2       0.01990   0.03140   0.02350  -0.00420   0.00690   0.00140
O3        0.05600   0.03400   0.03400  -0.00600   0.02500  -0.01100
N4        0.02000   0.03000   0.02300   0.00100   0.00900   0.00100
N5        0.01700   0.04600   0.01900  -0.00200   0.00500   0.00100
N6        0.02100   0.02300   0.02400  -0.00200   0.01200   0.00300
C7        0.02400   0.02300   0.02100   0.00100   0.01100   0.00800
C8        0.02000   0.02400   0.02900   0.00900   0.01300   0.00200
C10       0.02200   0.01600   0.03000  -0.00100   0.01800   0.00100
C11       0.02200   0.02100   0.02600  -0.00600   0.00600  -0.00400
C13       0.02900   0.02200   0.02200   0.00200   0.01300  -0.00400
C15       0.02300   0.02700   0.02000  -0.00200   0.01100  -0.00100
C17       0.02200   0.02900   0.01900   0.00300   0.01200   0.00100
C18       0.02400   0.03100   0.01900  -0.00200   0.01200   0.00200
C19       0.02600   0.03600   0.01900   0.00500   0.00800  -0.00700
C21       0.02000   0.02000   0.02800  -0.00100   0.01500  -0.00000
C22       0.02600   0.03800   0.01900   0.00700   0.00500  -0.00100
C24       0.02800   0.02800   0.02100  -0.00500   0.01300   0.00100
C25       0.03100   0.03400   0.02300  -0.00400   0.00900  -0.00700
C27       0.02000   0.03600   0.02700   0.00400   0.00500   0.00100
C29       0.02500   0.02900   0.03100  -0.00200   0.01700  -0.00000
C31       0.03100   0.03400   0.01900   0.00500   0.00900  -0.00200
C33       0.02200   0.04000   0.02700   0.00900   0.01200  -0.00000
C35       0.04500   0.03100   0.02500  -0.00700   0.02200  -0.00100
C36       0.03000   0.03000   0.04200   0.00000   0.02500   0.00000
C38       0.02800   0.04900   0.02400   0.00300   0.00600   0.00200
C40       0.03600   0.03700   0.02800  -0.00100   0.00600  -0.00300
C42       0.06200   0.05400   0.06600  -0.01100   0.05100  -0.02200
I46       0.02900   0.03110   0.03060   0.00368   0.01626   0.00378
Cu47      0.01990   0.03140   0.02350  -0.00420   0.00690   0.00140
O48       0.05600   0.03400   0.03400  -0.00600   0.02500  -0.01100
N49       0.02000   0.03000   0.02300   0.00100   0.00900   0.00100
N50       0.01700   0.04600   0.01900  -0.00200   0.00500   0.00100
N51       0.02100   0.02300   0.02400  -0.00200   0.01200   0.00300
C52       0.02400   0.02300   0.02100   0.00100   0.01100   0.00800
C53       0.02000   0.02400   0.02900   0.00900   0.01300   0.00200
C55       0.02200   0.01600   0.03000  -0.00100   0.01800   0.00100
C56       0.02200   0.02100   0.02600  -0.00600   0.00600  -0.00400
C58       0.02900   0.02200   0.02200   0.00200   0.01300  -0.00400
C60       0.02300   0.02700   0.02000  -0.00200   0.01100  -0.00100
C62       0.02200   0.02900   0.01900   0.00300   0.01200   0.00100
C63       0.02400   0.03100   0.01900  -0.00200   0.01200   0.00200
C64       0.02600   0.03600   0.01900   0.00500   0.00800  -0.00700
C66       0.02000   0.02000   0.02800  -0.00100   0.01500  -0.00000
C67       0.02600   0.03800   0.01900   0.00700   0.00500  -0.00100
C69       0.02800   0.02800   0.02100  -0.00500   0.01300   0.00100
C70       0.03100   0.03400   0.02300  -0.00400   0.00900  -0.00700
C72       0.02000   0.03600   0.02700   0.00400   0.00500   0.00100
C74       0.02500   0.02900   0.03100  -0.00200   0.01700  -0.00000
C76       0.03100   0.03400   0.01900   0.00500   0.00900  -0.00200
C78       0.02200   0.04000   0.02700   0.00900   0.01200  -0.00000
C80       0.04500   0.03100   0.02500  -0.00700   0.02200  -0.00100
C81       0.03000   0.03000   0.04200   0.00000   0.02500   0.00000
C83       0.02800   0.04900   0.02400   0.00300   0.00600   0.00200
C85       0.03600   0.03700   0.02800  -0.00100   0.00600  -0.00300
C87       0.06200   0.05400   0.06600  -0.01100   0.05100  -0.02200
I91       0.02900   0.03110   0.03060  -0.00368   0.01626  -0.00378
Cu92      0.01990   0.03140   0.02350   0.00420   0.00690  -0.00140
O93       0.05600   0.03400   0.03400   0.00600   0.02500   0.01100
N94       0.02000   0.03000   0.02300  -0.00100   0.00900  -0.00100
N95       0.01700   0.04600   0.01900   0.00200   0.00500  -0.00100
N96       0.02100   0.02300   0.02400   0.00200   0.01200  -0.00300
C97       0.02400   0.02300   0.02100  -0.00100   0.01100  -0.00800
C98       0.02000   0.02400   0.02900  -0.00900   0.01300  -0.00200
C100      0.02200   0.01600   0.03000   0.00100   0.01800  -0.00100
C101      0.02200   0.02100   0.02600   0.00600   0.00600   0.00400
C103      0.02900   0.02200   0.02200  -0.00200   0.01300   0.00400
C105      0.02300   0.02700   0.02000   0.00200   0.01100   0.00100
C107      0.02200   0.02900   0.01900  -0.00300   0.01200  -0.00100
C108      0.02400   0.03100   0.01900   0.00200   0.01200  -0.00200
C109      0.02600   0.03600   0.01900  -0.00500   0.00800   0.00700
C111      0.02000   0.02000   0.02800   0.00100   0.01500   0.00000
C112      0.02600   0.03800   0.01900  -0.00700   0.00500   0.00100
C114      0.02800   0.02800   0.02100   0.00500   0.01300  -0.00100
C115      0.03100   0.03400   0.02300   0.00400   0.00900   0.00700
C117      0.02000   0.03600   0.02700  -0.00400   0.00500  -0.00100
C119      0.02500   0.02900   0.03100   0.00200   0.01700   0.00000
C121      0.03100   0.03400   0.01900  -0.00500   0.00900   0.00200
C123      0.02200   0.04000   0.02700  -0.00900   0.01200   0.00000
C125      0.04500   0.03100   0.02500   0.00700   0.02200   0.00100
C126      0.03000   0.03000   0.04200   0.00000   0.02500   0.00000
C128      0.02800   0.04900   0.02400  -0.00300   0.00600  -0.00200
C130      0.03600   0.03700   0.02800   0.00100   0.00600   0.00300
C132      0.06200   0.05400   0.06600   0.01100   0.05100   0.02200
I136      0.02900   0.03110   0.03060  -0.00368   0.01626  -0.00378
Cu137     0.01990   0.03140   0.02350   0.00420   0.00690  -0.00140
O138      0.05600   0.03400   0.03400   0.00600   0.02500   0.01100
N139      0.02000   0.03000   0.02300  -0.00100   0.00900  -0.00100
N140      0.01700   0.04600   0.01900   0.00200   0.00500  -0.00100
N141      0.02100   0.02300   0.02400   0.00200   0.01200  -0.00300
C142      0.02400   0.02300   0.02100  -0.00100   0.01100  -0.00800
C143      0.02000   0.02400   0.02900  -0.00900   0.01300  -0.00200
C145      0.02200   0.01600   0.03000   0.00100   0.01800  -0.00100
C146      0.02200   0.02100   0.02600   0.00600   0.00600   0.00400
C148      0.02900   0.02200   0.02200  -0.00200   0.01300   0.00400
C150      0.02300   0.02700   0.02000   0.00200   0.01100   0.00100
C152      0.02200   0.02900   0.01900  -0.00300   0.01200  -0.00100
C153      0.02400   0.03100   0.01900   0.00200   0.01200  -0.00200
C154      0.02600   0.03600   0.01900  -0.00500   0.00800   0.00700
C156      0.02000   0.02000   0.02800   0.00100   0.01500   0.00000
C157      0.02600   0.03800   0.01900  -0.00700   0.00500   0.00100
C159      0.02800   0.02800   0.02100   0.00500   0.01300  -0.00100
C160      0.03100   0.03400   0.02300   0.00400   0.00900   0.00700
C162      0.02000   0.03600   0.02700  -0.00400   0.00500  -0.00100
C164      0.02500   0.02900   0.03100   0.00200   0.01700   0.00000
C166      0.03100   0.03400   0.01900  -0.00500   0.00900   0.00200
C168      0.02200   0.04000   0.02700  -0.00900   0.01200   0.00000
C170      0.04500   0.03100   0.02500   0.00700   0.02200   0.00100
C171      0.03000   0.03000   0.04200   0.00000   0.02500   0.00000
C173      0.02800   0.04900   0.02400  -0.00300   0.00600  -0.00200
C175      0.03600   0.03700   0.02800   0.00100   0.00600   0.00300
C177      0.06200   0.05400   0.06600   0.01100   0.05100   0.02200
I181      0.02900   0.03110   0.03060   0.00368   0.01626   0.00378
Cu182     0.01990   0.03140   0.02350  -0.00420   0.00690   0.00140
O183      0.05600   0.03400   0.03400  -0.00600   0.02500  -0.01100
N184      0.02000   0.03000   0.02300   0.00100   0.00900   0.00100
N185      0.01700   0.04600   0.01900  -0.00200   0.00500   0.00100
N186      0.02100   0.02300   0.02400  -0.00200   0.01200   0.00300
C187      0.02400   0.02300   0.02100   0.00100   0.01100   0.00800
C188      0.02000   0.02400   0.02900   0.00900   0.01300   0.00200
C190      0.02200   0.01600   0.03000  -0.00100   0.01800   0.00100
C191      0.02200   0.02100   0.02600  -0.00600   0.00600  -0.00400
C193      0.02900   0.02200   0.02200   0.00200   0.01300  -0.00400
C195      0.02300   0.02700   0.02000  -0.00200   0.01100  -0.00100
C197      0.02200   0.02900   0.01900   0.00300   0.01200   0.00100
C198      0.02400   0.03100   0.01900  -0.00200   0.01200   0.00200
C199      0.02600   0.03600   0.01900   0.00500   0.00800  -0.00700
C201      0.02000   0.02000   0.02800  -0.00100   0.01500  -0.00000
C202      0.02600   0.03800   0.01900   0.00700   0.00500  -0.00100
C204      0.02800   0.02800   0.02100  -0.00500   0.01300   0.00100
C205      0.03100   0.03400   0.02300  -0.00400   0.00900  -0.00700
C207      0.02000   0.03600   0.02700   0.00400   0.00500   0.00100
C209      0.02500   0.02900   0.03100  -0.00200   0.01700  -0.00000
C211      0.03100   0.03400   0.01900   0.00500   0.00900  -0.00200
C213      0.02200   0.04000   0.02700   0.00900   0.01200  -0.00000
C215      0.04500   0.03100   0.02500  -0.00700   0.02200  -0.00100
C216      0.03000   0.03000   0.04200   0.00000   0.02500   0.00000
C218      0.02800   0.04900   0.02400   0.00300   0.00600   0.00200
C220      0.03600   0.03700   0.02800  -0.00100   0.00600  -0.00300
C222      0.06200   0.05400   0.06600  -0.01100   0.05100  -0.02200
I226      0.02900   0.03110   0.03060   0.00368   0.01626   0.00378
Cu227     0.01990   0.03140   0.02350  -0.00420   0.00690   0.00140
O228      0.05600   0.03400   0.03400  -0.00600   0.02500  -0.01100
N229      0.02000   0.03000   0.02300   0.00100   0.00900   0.00100
N230      0.01700   0.04600   0.01900  -0.00200   0.00500   0.00100
N231      0.02100   0.02300   0.02400  -0.00200   0.01200   0.00300
C232      0.02400   0.02300   0.02100   0.00100   0.01100   0.00800
C233      0.02000   0.02400   0.02900   0.00900   0.01300   0.00200
C235      0.02200   0.01600   0.03000  -0.00100   0.01800   0.00100
C236      0.02200   0.02100   0.02600  -0.00600   0.00600  -0.00400
C238      0.02900   0.02200   0.02200   0.00200   0.01300  -0.00400
C240      0.02300   0.02700   0.02000  -0.00200   0.01100  -0.00100
C242      0.02200   0.02900   0.01900   0.00300   0.01200   0.00100
C243      0.02400   0.03100   0.01900  -0.00200   0.01200   0.00200
C244      0.02600   0.03600   0.01900   0.00500   0.00800  -0.00700
C246      0.02000   0.02000   0.02800  -0.00100   0.01500  -0.00000
C247      0.02600   0.03800   0.01900   0.00700   0.00500  -0.00100
C249      0.02800   0.02800   0.02100  -0.00500   0.01300   0.00100
C250      0.03100   0.03400   0.02300  -0.00400   0.00900  -0.00700
C252      0.02000   0.03600   0.02700   0.00400   0.00500   0.00100
C254      0.02500   0.02900   0.03100  -0.00200   0.01700  -0.00000
C256      0.03100   0.03400   0.01900   0.00500   0.00900  -0.00200
C258      0.02200   0.04000   0.02700   0.00900   0.01200  -0.00000
C260      0.04500   0.03100   0.02500  -0.00700   0.02200  -0.00100
C261      0.03000   0.03000   0.04200   0.00000   0.02500   0.00000
C263      0.02800   0.04900   0.02400   0.00300   0.00600   0.00200
C265      0.03600   0.03700   0.02800  -0.00100   0.00600  -0.00300
C267      0.06200   0.05400   0.06600  -0.01100   0.05100  -0.02200
I271      0.02900   0.03110   0.03060  -0.00368   0.01626  -0.00378
Cu272     0.01990   0.03140   0.02350   0.00420   0.00690  -0.00140
O273      0.05600   0.03400   0.03400   0.00600   0.02500   0.01100
N274      0.02000   0.03000   0.02300  -0.00100   0.00900  -0.00100
N275      0.01700   0.04600   0.01900   0.00200   0.00500  -0.00100
N276      0.02100   0.02300   0.02400   0.00200   0.01200  -0.00300
C277      0.02400   0.02300   0.02100  -0.00100   0.01100  -0.00800
C278      0.02000   0.02400   0.02900  -0.00900   0.01300  -0.00200
C280      0.02200   0.01600   0.03000   0.00100   0.01800  -0.00100
C281      0.02200   0.02100   0.02600   0.00600   0.00600   0.00400
C283      0.02900   0.02200   0.02200  -0.00200   0.01300   0.00400
C285      0.02300   0.02700   0.02000   0.00200   0.01100   0.00100
C287      0.02200   0.02900   0.01900  -0.00300   0.01200  -0.00100
C288      0.02400   0.03100   0.01900   0.00200   0.01200  -0.00200
C289      0.02600   0.03600   0.01900  -0.00500   0.00800   0.00700
C291      0.02000   0.02000   0.02800   0.00100   0.01500   0.00000
C292      0.02600   0.03800   0.01900  -0.00700   0.00500   0.00100
C294      0.02800   0.02800   0.02100   0.00500   0.01300  -0.00100
C295      0.03100   0.03400   0.02300   0.00400   0.00900   0.00700
C297      0.02000   0.03600   0.02700  -0.00400   0.00500  -0.00100
C299      0.02500   0.02900   0.03100   0.00200   0.01700   0.00000
C301      0.03100   0.03400   0.01900  -0.00500   0.00900   0.00200
C303      0.02200   0.04000   0.02700  -0.00900   0.01200   0.00000
C305      0.04500   0.03100   0.02500   0.00700   0.02200   0.00100
C306      0.03000   0.03000   0.04200   0.00000   0.02500   0.00000
C308      0.02800   0.04900   0.02400  -0.00300   0.00600  -0.00200
C310      0.03600   0.03700   0.02800   0.00100   0.00600   0.00300
C312      0.06200   0.05400   0.06600   0.01100   0.05100   0.02200
I316      0.02900   0.03110   0.03060  -0.00368   0.01626  -0.00378
Cu317     0.01990   0.03140   0.02350   0.00420   0.00690  -0.00140
O318      0.05600   0.03400   0.03400   0.00600   0.02500   0.01100
N319      0.02000   0.03000   0.02300  -0.00100   0.00900  -0.00100
N320      0.01700   0.04600   0.01900   0.00200   0.00500  -0.00100
N321      0.02100   0.02300   0.02400   0.00200   0.01200  -0.00300
C322      0.02400   0.02300   0.02100  -0.00100   0.01100  -0.00800
C323      0.02000   0.02400   0.02900  -0.00900   0.01300  -0.00200
C325      0.02200   0.01600   0.03000   0.00100   0.01800  -0.00100
C326      0.02200   0.02100   0.02600   0.00600   0.00600   0.00400
C328      0.02900   0.02200   0.02200  -0.00200   0.01300   0.00400
C330      0.02300   0.02700   0.02000   0.00200   0.01100   0.00100
C332      0.02200   0.02900   0.01900  -0.00300   0.01200  -0.00100
C333      0.02400   0.03100   0.01900   0.00200   0.01200  -0.00200
C334      0.02600   0.03600   0.01900  -0.00500   0.00800   0.00700
C336      0.02000   0.02000   0.02800   0.00100   0.01500   0.00000
C337      0.02600   0.03800   0.01900  -0.00700   0.00500   0.00100
C339      0.02800   0.02800   0.02100   0.00500   0.01300  -0.00100
C340      0.03100   0.03400   0.02300   0.00400   0.00900   0.00700
C342      0.02000   0.03600   0.02700  -0.00400   0.00500  -0.00100
C344      0.02500   0.02900   0.03100   0.00200   0.01700   0.00000
C346      0.03100   0.03400   0.01900  -0.00500   0.00900   0.00200
C348      0.02200   0.04000   0.02700  -0.00900   0.01200   0.00000
C350      0.04500   0.03100   0.02500   0.00700   0.02200   0.00100
C351      0.03000   0.03000   0.04200   0.00000   0.02500   0.00000
C353      0.02800   0.04900   0.02400  -0.00300   0.00600  -0.00200
C355      0.03600   0.03700   0.02800   0.00100   0.00600   0.00300
C357      0.06200   0.05400   0.06600   0.01100   0.05100   0.02200
loop_
_geom_bond_atom_site_label_1
_geom_bond_atom_site_label_2
_geom_bond_distance
_geom_bond_site_symmetry_2
_ccdc_geom_bond_type
I1     Cu2     2.638   .     S
I1     Cu182   2.657   1_554 S
Cu2    N5      2.018   .     S
Cu2    I181    2.657   1_554 S
Cu2    N319    2.037   .     S
Cu2    Cu182   2.624   1_554 S
O3     C35     1.372   .     S
O3     C42     1.429   .     S
N4     C19     1.344   .     S
N4     C22     1.345   .     S
N4     Cu317   2.037   1_655 S
N5     C25     1.332   .     S
N5     C33     1.341   .     S
N6     C7      1.358   .     S
N6     C17     1.332   .     S
C7     C8      1.385   .     S
C7     C18     1.489   .     S
C8     H9      0.930   .     S
C8     C10     1.384   .     S
C10    C15     1.400   .     S
C10    C24     1.480   .     S
C11    H12     0.930   .     S
C11    C19     1.371   .     S
C11    C21     1.376   .     S
C13    H14     0.931   .     S
C13    C18     1.374   .     S
C13    C33     1.386   .     S
C15    H16     0.930   .     S
C15    C17     1.390   .     S
C17    C21     1.497   .     S
C18    C27     1.378   .     S
C19    H20     0.930   .     S
C21    C31     1.396   .     S
C22    H23     0.930   .     S
C22    C31     1.360   .     S
C24    C29     1.391   .     S
C24    C38     1.409   .     S
C25    H26     0.929   .     S
C25    C27     1.398   .     S
C27    H28     0.929   .     S
C29    H30     0.929   .     S
C29    C36     1.385   .     S
C31    H32     0.930   .     S
C33    H34     0.929   .     S
C35    C36     1.372   .     S
C35    C40     1.394   .     S
C36    H37     0.929   .     S
C38    H39     0.931   .     S
C38    C40     1.369   .     S
C40    H41     0.929   .     S
C42    H43     0.961   .     S
C42    H44     0.960   .     S
C42    H45     0.960   .     S
I46    Cu47    2.638   1_645 S
I46    Cu227   2.657   1_554 S
Cu47   I46     2.638   1_465 S
Cu47   N50     2.018   .     S
Cu47   I226    2.657   1_554 S
Cu47   N274    2.037   1_455 S
Cu47   Cu227   2.624   1_464 S
O48    C80     1.372   .     S
O48    C87     1.429   .     S
N49    C64     1.344   .     S
N49    C67     1.345   .     S
N49    Cu272   2.037   .     S
N50    C70     1.332   .     S
N50    C78     1.341   1_565 S
N51    C52     1.358   .     S
N51    C62     1.332   .     S
C52    C53     1.385   1_565 S
C52    C63     1.489   .     S
C53    C52     1.385   1_545 S
C53    H54     0.930   .     S
C53    C55     1.384   .     S
C55    C60     1.400   1_545 S
C55    C69     1.480   .     S
C56    H57     0.930   .     S
C56    C64     1.371   .     S
C56    C66     1.376   .     S
C58    H59     0.931   .     S
C58    C63     1.374   1_545 S
C58    C78     1.386   .     S
C60    C55     1.400   1_565 S
C60    H61     0.930   .     S
C60    C62     1.390   .     S
C62    C66     1.497   .     S
C63    C72     1.378   .     S
C63    C58     1.374   1_565 S
C64    H65     0.930   .     S
C66    C76     1.396   .     S
C67    H68     0.930   .     S
C67    C76     1.360   .     S
C69    C74     1.391   .     S
C69    C83     1.409   .     S
C70    H71     0.929   .     S
C70    C72     1.398   .     S
C72    H73     0.929   .     S
C74    H75     0.929   .     S
C74    C81     1.385   .     S
C76    H77     0.930   .     S
C78    N50     1.341   1_545 S
C78    H79     0.929   .     S
C80    C81     1.372   .     S
C80    C85     1.394   .     S
C81    H82     0.929   .     S
C83    H84     0.931   .     S
C83    C85     1.369   .     S
C85    H86     0.929   .     S
C87    H88     0.961   .     S
C87    H89     0.960   .     S
C87    H90     0.960   .     S
I91    Cu92    2.638   .     S
I91    Cu272   2.657   .     S
Cu92   N95     2.018   .     S
Cu92   I271    2.657   .     S
Cu92   N229    2.037   .     S
Cu92   Cu272   2.624   .     S
O93    C125    1.372   .     S
O93    C132    1.429   .     S
N94    C109    1.344   1_556 S
N94    C112    1.345   .     S
N94    Cu227   2.037   1_455 S
N95    C115    1.332   .     S
N95    C123    1.341   .     S
N96    C97     1.358   .     S
N96    C107    1.332   1_554 S
C97    C98     1.385   .     S
C97    C108    1.489   .     S
C98    H99     0.930   .     S
C98    C100    1.384   1_554 S
C100   C98     1.384   1_556 S
C100   C105    1.400   .     S
C100   C114    1.480   .     S
C101   H102    0.930   .     S
C101   C109    1.371   .     S
C101   C111    1.376   1_554 S
C103   H104    0.931   .     S
C103   C108    1.374   .     S
C103   C123    1.386   .     S
C105   H106    0.930   .     S
C105   C107    1.390   .     S
C107   N96     1.332   1_556 S
C107   C111    1.497   .     S
C108   C117    1.378   .     S
C109   N94     1.344   1_554 S
C109   H110    0.930   .     S
C111   C101    1.376   1_556 S
C111   C121    1.396   .     S
C112   H113    0.930   .     S
C112   C121    1.360   .     S
C114   C119    1.391   .     S
C114   C128    1.409   .     S
C115   H116    0.929   .     S
C115   C117    1.398   .     S
C117   H118    0.929   .     S
C119   H120    0.929   .     S
C119   C126    1.385   .     S
C121   H122    0.930   .     S
C123   H124    0.929   .     S
C125   C126    1.372   .     S
C125   C130    1.394   .     S
C126   H127    0.929   .     S
C128   H129    0.931   .     S
C128   C130    1.369   .     S
C130   H131    0.929   .     S
C132   H133    0.961   .     S
C132   H134    0.960   .     S
C132   H135    0.960   .     S
I136   Cu137   2.638   1_445 S
I136   Cu317   2.657   .     S
Cu137  I136    2.638   1_665 S
Cu137  N140    2.018   .     S
Cu137  I316    2.657   .     S
Cu137  N184    2.037   1_655 S
Cu137  Cu317   2.624   1_665 S
O138   C170    1.372   .     S
O138   C177    1.429   .     S
N139   C154    1.344   1_556 S
N139   C157    1.345   .     S
N139   Cu182   2.037   .     S
N140   C160    1.332   .     S
N140   C168    1.341   1_565 S
N141   C142    1.358   .     S
N141   C152    1.332   1_554 S
C142   C143    1.385   1_565 S
C142   C153    1.489   .     S
C143   C142    1.385   1_545 S
C143   H144    0.930   .     S
C143   C145    1.384   1_554 S
C145   C143    1.384   1_556 S
C145   C150    1.400   1_545 S
C145   C159    1.480   .     S
C146   H147    0.930   .     S
C146   C154    1.371   .     S
C146   C156    1.376   1_554 S
C148   H149    0.931   .     S
C148   C153    1.374   1_545 S
C148   C168    1.386   .     S
C150   C145    1.400   1_565 S
C150   H151    0.930   .     S
C150   C152    1.390   .     S
C152   N141    1.332   1_556 S
C152   C156    1.497   .     S
C153   C162    1.378   .     S
C153   C148    1.374   1_565 S
C154   N139    1.344   1_554 S
C154   H155    0.930   .     S
C156   C146    1.376   1_556 S
C156   C166    1.396   .     S
C157   H158    0.930   .     S
C157   C166    1.360   .     S
C159   C164    1.391   .     S
C159   C173    1.409   .     S
C160   H161    0.929   .     S
C160   C162    1.398   .     S
C162   H163    0.929   .     S
C164   H165    0.929   .     S
C164   C171    1.385   .     S
C166   H167    0.930   .     S
C168   N140    1.341   1_545 S
C168   H169    0.929   .     S
C170   C171    1.372   .     S
C170   C175    1.394   .     S
C171   H172    0.929   .     S
C173   H174    0.931   .     S
C173   C175    1.369   .     S
C175   H176    0.929   .     S
C177   H178    0.961   .     S
C177   H179    0.960   .     S
C177   H180    0.960   .     S
I181   Cu182   2.638   .     S
I181   Cu2     2.657   1_556 S
Cu182  N185    2.018   .     S
Cu182  I1      2.657   1_556 S
Cu182  Cu2     2.624   1_556 S
O183   C215    1.372   .     S
O183   C222    1.429   .     S
N184   C199    1.344   .     S
N184   C202    1.345   .     S
N184   Cu137   2.037   1_455 S
N185   C205    1.332   .     S
N185   C213    1.341   .     S
N186   C187    1.358   .     S
N186   C197    1.332   .     S
C187   C188    1.385   .     S
C187   C198    1.489   .     S
C188   H189    0.930   .     S
C188   C190    1.384   .     S
C190   C195    1.400   .     S
C190   C204    1.480   .     S
C191   H192    0.930   .     S
C191   C199    1.371   .     S
C191   C201    1.376   .     S
C193   H194    0.931   .     S
C193   C198    1.374   .     S
C193   C213    1.386   .     S
C195   H196    0.930   .     S
C195   C197    1.390   .     S
C197   C201    1.497   .     S
C198   C207    1.378   .     S
C199   H200    0.930   .     S
C201   C211    1.396   .     S
C202   H203    0.930   .     S
C202   C211    1.360   .     S
C204   C209    1.391   .     S
C204   C218    1.409   .     S
C205   H206    0.929   .     S
C205   C207    1.398   .     S
C207   H208    0.929   .     S
C209   H210    0.929   .     S
C209   C216    1.385   .     S
C211   H212    0.930   .     S
C213   H214    0.929   .     S
C215   C216    1.372   .     S
C215   C220    1.394   .     S
C216   H217    0.929   .     S
C218   H219    0.931   .     S
C218   C220    1.369   .     S
C220   H221    0.929   .     S
C222   H223    0.961   .     S
C222   H224    0.960   .     S
C222   H225    0.960   .     S
I226   Cu227   2.638   1_465 S
I226   Cu47    2.657   1_556 S
Cu227  I226    2.638   1_645 S
Cu227  N230    2.018   .     S
Cu227  I46     2.657   1_556 S
Cu227  N94     2.037   1_655 S
Cu227  Cu47    2.624   1_646 S
O228   C260    1.372   .     S
O228   C267    1.429   .     S
N229   C244    1.344   .     S
N229   C247    1.345   .     S
N230   C250    1.332   .     S
N230   C258    1.341   1_545 S
N231   C232    1.358   .     S
N231   C242    1.332   .     S
C232   C233    1.385   1_545 S
C232   C243    1.489   .     S
C233   C232    1.385   1_565 S
C233   H234    0.930   .     S
C233   C235    1.384   .     S
C235   C240    1.400   1_565 S
C235   C249    1.480   .     S
C236   H237    0.930   .     S
C236   C244    1.371   .     S
C236   C246    1.376   .     S
C238   H239    0.931   .     S
C238   C243    1.374   1_565 S
C238   C258    1.386   .     S
C240   C235    1.400   1_545 S
C240   H241    0.930   .     S
C240   C242    1.390   .     S
C242   C246    1.497   .     S
C243   C252    1.378   .     S
C243   C238    1.374   1_545 S
C244   H245    0.930   .     S
C246   C256    1.396   .     S
C247   H248    0.930   .     S
C247   C256    1.360   .     S
C249   C254    1.391   .     S
C249   C263    1.409   .     S
C250   H251    0.929   .     S
C250   C252    1.398   .     S
C252   H253    0.929   .     S
C254   H255    0.929   .     S
C254   C261    1.385   .     S
C256   H257    0.930   .     S
C258   N230    1.341   1_565 S
C258   H259    0.929   .     S
C260   C261    1.372   .     S
C260   C265    1.394   .     S
C261   H262    0.929   .     S
C263   H264    0.931   .     S
C263   C265    1.369   .     S
C265   H266    0.929   .     S
C267   H268    0.961   .     S
C267   H269    0.960   .     S
C267   H270    0.960   .     S
I271   Cu272   2.638   .     S
Cu272  N275    2.018   .     S
O273   C305    1.372   .     S
O273   C312    1.429   .     S
N274   C289    1.344   1_554 S
N274   C292    1.345   .     S
N274   Cu47    2.037   1_655 S
N275   C295    1.332   .     S
N275   C303    1.341   .     S
N276   C277    1.358   .     S
N276   C287    1.332   1_556 S
C277   C278    1.385   .     S
C277   C288    1.489   .     S
C278   H279    0.930   .     S
C278   C280    1.384   1_556 S
C280   C278    1.384   1_554 S
C280   C285    1.400   .     S
C280   C294    1.480   .     S
C281   H282    0.930   .     S
C281   C289    1.371   .     S
C281   C291    1.376   1_556 S
C283   H284    0.931   .     S
C283   C288    1.374   .     S
C283   C303    1.386   .     S
C285   H286    0.930   .     S
C285   C287    1.390   .     S
C287   N276    1.332   1_554 S
C287   C291    1.497   .     S
C288   C297    1.378   .     S
C289   N274    1.344   1_556 S
C289   H290    0.930   .     S
C291   C281    1.376   1_554 S
C291   C301    1.396   .     S
C292   H293    0.930   .     S
C292   C301    1.360   .     S
C294   C299    1.391   .     S
C294   C308    1.409   .     S
C295   H296    0.929   .     S
C295   C297    1.398   .     S
C297   H298    0.929   .     S
C299   H300    0.929   .     S
C299   C306    1.385   .     S
C301   H302    0.930   .     S
C303   H304    0.929   .     S
C305   C306    1.372   .     S
C305   C310    1.394   .     S
C306   H307    0.929   .     S
C308   H309    0.931   .     S
C308   C310    1.369   .     S
C310   H311    0.929   .     S
C312   H313    0.961   .     S
C312   H314    0.960   .     S
C312   H315    0.960   .     S
I316   Cu317   2.638   1_665 S
Cu317  I316    2.638   1_445 S
Cu317  N320    2.018   .     S
Cu317  N4      2.037   1_455 S
Cu317  Cu137   2.624   1_445 S
O318   C350    1.372   .     S
O318   C357    1.429   .     S
N319   C334    1.344   1_554 S
N319   C337    1.345   .     S
N320   C340    1.332   .     S
N320   C348    1.341   1_545 S
N321   C322    1.358   .     S
N321   C332    1.332   1_556 S
C322   C323    1.385   1_545 S
C322   C333    1.489   .     S
C323   C322    1.385   1_565 S
C323   H324    0.930   .     S
C323   C325    1.384   1_556 S
C325   C323    1.384   1_554 S
C325   C330    1.400   1_565 S
C325   C339    1.480   .     S
C326   H327    0.930   .     S
C326   C334    1.371   .     S
C326   C336    1.376   1_556 S
C328   H329    0.931   .     S
C328   C333    1.374   1_565 S
C328   C348    1.386   .     S
C330   C325    1.400   1_545 S
C330   H331    0.930   .     S
C330   C332    1.390   .     S
C332   N321    1.332   1_554 S
C332   C336    1.497   .     S
C333   C342    1.378   .     S
C333   C328    1.374   1_545 S
C334   N319    1.344   1_556 S
C334   H335    0.930   .     S
C336   C326    1.376   1_554 S
C336   C346    1.396   .     S
C337   H338    0.930   .     S
C337   C346    1.360   .     S
C339   C344    1.391   .     S
C339   C353    1.409   .     S
C340   H341    0.929   .     S
C340   C342    1.398   .     S
C342   H343    0.929   .     S
C344   H345    0.929   .     S
C344   C351    1.385   .     S
C346   H347    0.930   .     S
C348   N320    1.341   1_565 S
C348   H349    0.929   .     S
C350   C351    1.372   .     S
C350   C355    1.394   .     S
C351   H352    0.929   .     S
C353   H354    0.931   .     S
C353   C355    1.369   .     S
C355   H356    0.929   .     S
C357   H358    0.961   .     S
C357   H359    0.960   .     S
C357   H360    0.960   .     S
