data_ZAVLAM_FSR
_audit_creation_date              2024-06-11
_audit_creation_method            'Materials Studio'
_symmetry_space_group_name_H-M    'P1'
_symmetry_Int_Tables_number       1
_symmetry_cell_setting            triclinic
loop_
_symmetry_equiv_pos_as_xyz
  x,y,z
_cell_length_a                    33.0267
_cell_length_b                    33.0267
_cell_length_c                    9.1815
_cell_angle_alpha                 90.0000
_cell_angle_beta                  90.0000
_cell_angle_gamma                 120.0000
loop_
_atom_site_label
_atom_site_type_symbol
_atom_site_fract_x
_atom_site_fract_y
_atom_site_fract_z
_atom_site_U_iso_or_equiv
_atom_site_adp_type
_atom_site_occupancy
N1     N     0.53449   0.53366   0.68910   0.03867  Uani   1.00
N2     N     0.49885   0.44077   0.57480   0.03740  Uani   1.00
N3     N     0.37701   0.24264   0.25800   0.04322  Uani   1.00
C4     C     0.51550   0.43445   0.70240   0.03622  Uani   1.00
C5     C     0.47449   0.39720   0.51030   0.03667  Uani   1.00
C6     C     0.47710   0.36330   0.60140   0.04456  Uani   1.00
H7     H     0.46350   0.33080   0.58200   0.05400  Uiso   1.00
C8     C     0.54071   0.46996   0.80680   0.03933  Uani   1.00
C9     C     0.50257   0.38609   0.71990   0.04378  Uani   1.00
H10    H     0.51040   0.37280   0.79930   0.05200  Uiso   1.00
C11    C     0.42396   0.33673   0.33240   0.04133  Uani   1.00
C12    C     0.54999   0.51601   0.79720   0.04044  Uani   1.00
C13    C     0.55930   0.45674   0.93320   0.04478  Uani   1.00
C14    C     0.55478   0.58090   0.71360   0.03733  Uani   1.00
C15    C     0.58350   0.59341   0.84290   0.04733  Uani   1.00
H16    H     0.60120   0.62370   0.88440   0.05700  Uiso   1.00
C17    C     0.44987   0.38768   0.37810   0.03911  Uani   1.00
C18    C     0.58040   0.55352   0.89290   0.04800  Uani   1.00
H19    H     0.59560   0.55070   0.97680   0.05800  Uiso   1.00
C20    C     0.44130   0.32029   0.22570   0.05056  Uani   1.00
H21    H     0.46950   0.34090   0.17640   0.06100  Uiso   1.00
C22    C     0.36040   0.25895   0.36030   0.04811  Uani   1.00
H23    H     0.33200   0.23770   0.40770   0.05800  Uiso   1.00
C24    C     0.54400   0.45720   0.07340   0.05300  Uani   1.00
H25    H     0.52160   0.46690   0.08910   0.06400  Uiso   1.00
C26    C     0.59390   0.43010   0.17150   0.06433  Uani   1.00
C27    C     0.41690   0.27325   0.19180   0.05022  Uani   1.00
H28    H     0.42900   0.26210   0.11790   0.06000  Uiso   1.00
C29    C     0.60990   0.43030   0.03150   0.07056  Uani   1.00
H30    H     0.63280   0.42130   0.01670   0.08500  Uiso   1.00
O31    O     0.59790   0.41920   0.42740   0.12756  Uani   1.00
C32    C     0.38260   0.30520   0.40040   0.04922  Uani   1.00
H33    H     0.36970   0.31550   0.47420   0.05900  Uiso   1.00
C34    C     0.59330   0.44340   0.91390   0.05822  Uani   1.00
H35    H     0.60480   0.44340   0.81900   0.07100  Uiso   1.00
C36    C     0.56110   0.44370   0.19220   0.06056  Uani   1.00
H37    H     0.55010   0.44400   0.28750   0.07200  Uiso   1.00
O38    O     0.64070   0.40240   0.27790   0.16267  Uani   1.00
C39    C     0.61320   0.41750   0.29910   0.10556  Uani   1.00
N40    N     0.20116   0.86699   0.02243   0.03867  Uani   1.00
N41    N     0.16552   0.77410   0.90813   0.03740  Uani   1.00
N42    N     0.04368   0.57597   0.59133   0.04322  Uani   1.00
C43    C     0.18217   0.76778   0.03573   0.03622  Uani   1.00
C44    C     0.14116   0.73053   0.84363   0.03667  Uani   1.00
C45    C     0.14377   0.69663   0.93473   0.04456  Uani   1.00
H46    H     0.13017   0.66413   0.91533   0.05400  Uiso   1.00
C47    C     0.20738   0.80329   0.14013   0.03933  Uani   1.00
C48    C     0.16924   0.71942   0.05323   0.04378  Uani   1.00
H49    H     0.17707   0.70613   0.13263   0.05200  Uiso   1.00
C50    C     0.09063   0.67006   0.66573   0.04133  Uani   1.00
C51    C     0.21666   0.84934   0.13053   0.04044  Uani   1.00
C52    C     0.22597   0.79007   0.26653   0.04478  Uani   1.00
C53    C     0.22145   0.91423   0.04693   0.03733  Uani   1.00
C54    C     0.25017   0.92674   0.17623   0.04733  Uani   1.00
H55    H     0.26787   0.95703   0.21773   0.05700  Uiso   1.00
C56    C     0.11654   0.72101   0.71143   0.03911  Uani   1.00
C57    C     0.24707   0.88685   0.22623   0.04800  Uani   1.00
H58    H     0.26227   0.88403   0.31013   0.05800  Uiso   1.00
C59    C     0.10797   0.65362   0.55903   0.05056  Uani   1.00
H60    H     0.13617   0.67423   0.50973   0.06100  Uiso   1.00
C61    C     0.02707   0.59228   0.69363   0.04811  Uani   1.00
H62    H     0.99867   0.57103   0.74103   0.05800  Uiso   1.00
C63    C     0.21067   0.79053   0.40673   0.05300  Uani   1.00
H64    H     0.18827   0.80023   0.42243   0.06400  Uiso   1.00
C65    C     0.26057   0.76343   0.50483   0.06433  Uani   1.00
C66    C     0.08357   0.60658   0.52513   0.05022  Uani   1.00
H67    H     0.09567   0.59543   0.45123   0.06000  Uiso   1.00
C68    C     0.27657   0.76363   0.36483   0.07056  Uani   1.00
H69    H     0.29947   0.75463   0.35003   0.08500  Uiso   1.00
O70    O     0.26457   0.75253   0.76073   0.12756  Uani   1.00
C71    C     0.04927   0.63853   0.73373   0.04922  Uani   1.00
H72    H     0.03637   0.64883   0.80753   0.05900  Uiso   1.00
C73    C     0.25997   0.77673   0.24723   0.05822  Uani   1.00
H74    H     0.27147   0.77673   0.15233   0.07100  Uiso   1.00
C75    C     0.22777   0.77703   0.52553   0.06056  Uani   1.00
H76    H     0.21677   0.77733   0.62083   0.07200  Uiso   1.00
O77    O     0.30737   0.73573   0.61123   0.16267  Uani   1.00
C78    C     0.27987   0.75083   0.63243   0.10556  Uani   1.00
N79    N     0.86782   0.20033   0.35577   0.03867  Uani   1.00
N80    N     0.83218   0.10744   0.24147   0.03740  Uani   1.00
N81    N     0.71034   0.90931   0.92467   0.04322  Uani   1.00
C82    C     0.84883   0.10112   0.36907   0.03622  Uani   1.00
C83    C     0.80782   0.06387   0.17697   0.03667  Uani   1.00
C84    C     0.81043   0.02997   0.26807   0.04456  Uani   1.00
H85    H     0.79683   0.99747   0.24867   0.05400  Uiso   1.00
C86    C     0.87404   0.13663   0.47347   0.03933  Uani   1.00
C87    C     0.83590   0.05276   0.38657   0.04378  Uani   1.00
H88    H     0.84373   0.03947   0.46597   0.05200  Uiso   1.00
C89    C     0.75729   0.00340   0.99907   0.04133  Uani   1.00
C90    C     0.88332   0.18268   0.46387   0.04044  Uani   1.00
C91    C     0.89263   0.12341   0.59987   0.04478  Uani   1.00
C92    C     0.88811   0.24757   0.38027   0.03733  Uani   1.00
C93    C     0.91683   0.26008   0.50957   0.04733  Uani   1.00
H94    H     0.93453   0.29037   0.55107   0.05700  Uiso   1.00
C95    C     0.78320   0.05435   0.04477   0.03911  Uani   1.00
C96    C     0.91373   0.22019   0.55957   0.04800  Uani   1.00
H97    H     0.92893   0.21737   0.64347   0.05800  Uiso   1.00
C98    C     0.77463   0.98696   0.89237   0.05056  Uani   1.00
H99    H     0.80283   0.00757   0.84307   0.06100  Uiso   1.00
C100   C     0.69373   0.92562   0.02697   0.04811  Uani   1.00
H101   H     0.66533   0.90437   0.07437   0.05800  Uiso   1.00
C102   C     0.87733   0.12387   0.74007   0.05300  Uani   1.00
H103   H     0.85493   0.13357   0.75577   0.06400  Uiso   1.00
C104   C     0.92723   0.09677   0.83817   0.06433  Uani   1.00
C105   C     0.75023   0.93992   0.85847   0.05022  Uani   1.00
H106   H     0.76233   0.92877   0.78457   0.06000  Uiso   1.00
C107   C     0.94323   0.09697   0.69817   0.07056  Uani   1.00
H108   H     0.96613   0.08797   0.68337   0.08500  Uiso   1.00
O109   O     0.93123   0.08587   0.09407   0.12756  Uani   1.00
C110   C     0.71593   0.97187   0.06707   0.04922  Uani   1.00
H111   H     0.70303   0.98217   0.14087   0.05900  Uiso   1.00
C112   C     0.92663   0.11007   0.58057   0.05822  Uani   1.00
H113   H     0.93813   0.11007   0.48567   0.07100  Uiso   1.00
C114   C     0.89443   0.11037   0.85887   0.06056  Uani   1.00
H115   H     0.88343   0.11067   0.95417   0.07200  Uiso   1.00
O116   O     0.97403   0.06907   0.94457   0.16267  Uani   1.00
C117   C     0.94653   0.08417   0.96577   0.10556  Uani   1.00
N118   N     0.46634   0.00083   0.68910   0.03867  Uani   1.00
N119   N     0.55923   0.05808   0.57480   0.03740  Uani   1.00
N120   N     0.75736   0.13437   0.25800   0.04322  Uani   1.00
C121   C     0.56555   0.08105   0.70240   0.03622  Uani   1.00
C122   C     0.60280   0.07729   0.51030   0.03667  Uani   1.00
C123   C     0.63670   0.11380   0.60140   0.04456  Uani   1.00
H124   H     0.66920   0.13270   0.58200   0.05400  Uiso   1.00
C125   C     0.53004   0.07075   0.80680   0.03933  Uani   1.00
C126   C     0.61391   0.11648   0.71990   0.04378  Uani   1.00
H127   H     0.62720   0.13760   0.79930   0.05200  Uiso   1.00
C128   C     0.66327   0.08723   0.33240   0.04133  Uani   1.00
C129   C     0.48399   0.03398   0.79720   0.04044  Uani   1.00
C130   C     0.54326   0.10256   0.93320   0.04478  Uani   1.00
C131   C     0.41910   0.97388   0.71360   0.03733  Uani   1.00
C132   C     0.40659   0.99009   0.84290   0.04733  Uani   1.00
H133   H     0.37630   0.97750   0.88440   0.05700  Uiso   1.00
C134   C     0.61232   0.06219   0.37810   0.03911  Uani   1.00
C135   C     0.44648   0.02688   0.89290   0.04800  Uani   1.00
H136   H     0.44930   0.04490   0.97680   0.05800  Uiso   1.00
C137   C     0.67971   0.12101   0.22570   0.05056  Uani   1.00
H138   H     0.65910   0.12860   0.17640   0.06100  Uiso   1.00
C139   C     0.74105   0.10145   0.36030   0.04811  Uani   1.00
H140   H     0.76230   0.09430   0.40770   0.05800  Uiso   1.00
C141   C     0.54280   0.08680   0.07340   0.05300  Uani   1.00
H142   H     0.53310   0.05470   0.08910   0.06400  Uiso   1.00
C143   C     0.56990   0.16380   0.17150   0.06433  Uani   1.00
C144   C     0.72675   0.14365   0.19180   0.05022  Uani   1.00
H145   H     0.73790   0.16690   0.11790   0.06000  Uiso   1.00
C146   C     0.56970   0.17960   0.03150   0.07056  Uani   1.00
H147   H     0.57870   0.21150   0.01670   0.08500  Uiso   1.00
O148   O     0.58080   0.17870   0.42740   0.12756  Uani   1.00
C149   C     0.69480   0.07740   0.40040   0.04922  Uani   1.00
H150   H     0.68450   0.05420   0.47420   0.05900  Uiso   1.00
C151   C     0.55660   0.14990   0.91390   0.05822  Uani   1.00
H152   H     0.55660   0.16140   0.81900   0.07100  Uiso   1.00
C153   C     0.55630   0.11740   0.19220   0.06056  Uani   1.00
H154   H     0.55600   0.10610   0.28750   0.07200  Uiso   1.00
O155   O     0.59760   0.23830   0.27790   0.16267  Uani   1.00
C156   C     0.58250   0.19570   0.29910   0.10556  Uani   1.00
N157   N     0.13301   0.33416   0.02243   0.03867  Uani   1.00
N158   N     0.22590   0.39141   0.90813   0.03740  Uani   1.00
N159   N     0.42403   0.46770   0.59133   0.04322  Uani   1.00
C160   C     0.23222   0.41438   0.03573   0.03622  Uani   1.00
C161   C     0.26947   0.41062   0.84363   0.03667  Uani   1.00
C162   C     0.30337   0.44713   0.93473   0.04456  Uani   1.00
H163   H     0.33587   0.46603   0.91533   0.05400  Uiso   1.00
C164   C     0.19671   0.40408   0.14013   0.03933  Uani   1.00
C165   C     0.28058   0.44981   0.05323   0.04378  Uani   1.00
H166   H     0.29387   0.47093   0.13263   0.05200  Uiso   1.00
C167   C     0.32994   0.42056   0.66573   0.04133  Uani   1.00
C168   C     0.15066   0.36731   0.13053   0.04044  Uani   1.00
C169   C     0.20993   0.43589   0.26653   0.04478  Uani   1.00
C170   C     0.08577   0.30721   0.04693   0.03733  Uani   1.00
C171   C     0.07326   0.32342   0.17623   0.04733  Uani   1.00
H172   H     0.04297   0.31083   0.21773   0.05700  Uiso   1.00
C173   C     0.27899   0.39552   0.71143   0.03911  Uani   1.00
C174   C     0.11315   0.36021   0.22623   0.04800  Uani   1.00
H175   H     0.11597   0.37823   0.31013   0.05800  Uiso   1.00
C176   C     0.34638   0.45434   0.55903   0.05056  Uani   1.00
H177   H     0.32577   0.46193   0.50973   0.06100  Uiso   1.00
C178   C     0.40772   0.43478   0.69363   0.04811  Uani   1.00
H179   H     0.42897   0.42763   0.74103   0.05800  Uiso   1.00
C180   C     0.20947   0.42013   0.40673   0.05300  Uani   1.00
H181   H     0.19977   0.38803   0.42243   0.06400  Uiso   1.00
C182   C     0.23657   0.49713   0.50483   0.06433  Uani   1.00
C183   C     0.39342   0.47698   0.52513   0.05022  Uani   1.00
H184   H     0.40457   0.50023   0.45123   0.06000  Uiso   1.00
C185   C     0.23637   0.51293   0.36483   0.07056  Uani   1.00
H186   H     0.24537   0.54483   0.35003   0.08500  Uiso   1.00
O187   O     0.24747   0.51203   0.76073   0.12756  Uani   1.00
C188   C     0.36147   0.41073   0.73373   0.04922  Uani   1.00
H189   H     0.35117   0.38753   0.80753   0.05900  Uiso   1.00
C190   C     0.22327   0.48323   0.24723   0.05822  Uani   1.00
H191   H     0.22327   0.49473   0.15233   0.07100  Uiso   1.00
C192   C     0.22297   0.45073   0.52553   0.06056  Uani   1.00
H193   H     0.22267   0.43943   0.62083   0.07200  Uiso   1.00
O194   O     0.26427   0.57163   0.61123   0.16267  Uani   1.00
C195   C     0.24917   0.52903   0.63243   0.10556  Uani   1.00
N196   N     0.79967   0.66750   0.35577   0.03867  Uani   1.00
N197   N     0.89256   0.72475   0.24147   0.03740  Uani   1.00
N198   N     0.09069   0.80104   0.92467   0.04322  Uani   1.00
C199   C     0.89888   0.74772   0.36907   0.03622  Uani   1.00
C200   C     0.93613   0.74396   0.17697   0.03667  Uani   1.00
C201   C     0.97003   0.78047   0.26807   0.04456  Uani   1.00
H202   H     0.00253   0.79937   0.24867   0.05400  Uiso   1.00
C203   C     0.86337   0.73742   0.47347   0.03933  Uani   1.00
C204   C     0.94724   0.78315   0.38657   0.04378  Uani   1.00
H205   H     0.96053   0.80427   0.46597   0.05200  Uiso   1.00
C206   C     0.99660   0.75390   0.99907   0.04133  Uani   1.00
C207   C     0.81732   0.70065   0.46387   0.04044  Uani   1.00
C208   C     0.87659   0.76923   0.59987   0.04478  Uani   1.00
C209   C     0.75243   0.64055   0.38027   0.03733  Uani   1.00
C210   C     0.73992   0.65676   0.50957   0.04733  Uani   1.00
H211   H     0.70963   0.64417   0.55107   0.05700  Uiso   1.00
C212   C     0.94565   0.72886   0.04477   0.03911  Uani   1.00
C213   C     0.77981   0.69355   0.55957   0.04800  Uani   1.00
H214   H     0.78263   0.71157   0.64347   0.05800  Uiso   1.00
C215   C     0.01304   0.78768   0.89237   0.05056  Uani   1.00
H216   H     0.99243   0.79527   0.84307   0.06100  Uiso   1.00
C217   C     0.07438   0.76812   0.02697   0.04811  Uani   1.00
H218   H     0.09563   0.76097   0.07437   0.05800  Uiso   1.00
C219   C     0.87613   0.75347   0.74007   0.05300  Uani   1.00
H220   H     0.86643   0.72137   0.75577   0.06400  Uiso   1.00
C221   C     0.90323   0.83047   0.83817   0.06433  Uani   1.00
C222   C     0.06008   0.81032   0.85847   0.05022  Uani   1.00
H223   H     0.07123   0.83357   0.78457   0.06000  Uiso   1.00
C224   C     0.90303   0.84627   0.69817   0.07056  Uani   1.00
H225   H     0.91203   0.87817   0.68337   0.08500  Uiso   1.00
O226   O     0.91413   0.84537   0.09407   0.12756  Uani   1.00
C227   C     0.02813   0.74407   0.06707   0.04922  Uani   1.00
H228   H     0.01783   0.72087   0.14087   0.05900  Uiso   1.00
C229   C     0.88993   0.81657   0.58057   0.05822  Uani   1.00
H230   H     0.88993   0.82807   0.48567   0.07100  Uiso   1.00
C231   C     0.88963   0.78407   0.85887   0.06056  Uani   1.00
H232   H     0.88933   0.77277   0.95417   0.07200  Uiso   1.00
O233   O     0.93093   0.90497   0.94457   0.16267  Uani   1.00
C234   C     0.91583   0.86237   0.96577   0.10556  Uani   1.00
N235   N     0.99917   0.46551   0.68910   0.03867  Uani   1.00
N236   N     0.94192   0.50115   0.57480   0.03740  Uani   1.00
N237   N     0.86563   0.62299   0.25800   0.04322  Uani   1.00
C238   C     0.91895   0.48450   0.70240   0.03622  Uani   1.00
C239   C     0.92271   0.52551   0.51030   0.03667  Uani   1.00
C240   C     0.88620   0.52290   0.60140   0.04456  Uani   1.00
H241   H     0.86730   0.53650   0.58200   0.05400  Uiso   1.00
C242   C     0.92925   0.45929   0.80680   0.03933  Uani   1.00
C243   C     0.88352   0.49743   0.71990   0.04378  Uani   1.00
H244   H     0.86240   0.48960   0.79930   0.05200  Uiso   1.00
C245   C     0.91277   0.57604   0.33240   0.04133  Uani   1.00
C246   C     0.96602   0.45001   0.79720   0.04044  Uani   1.00
C247   C     0.89744   0.44070   0.93320   0.04478  Uani   1.00
C248   C     0.02612   0.44522   0.71360   0.03733  Uani   1.00
C249   C     0.00991   0.41650   0.84290   0.04733  Uani   1.00
H250   H     0.02250   0.39880   0.88440   0.05700  Uiso   1.00
C251   C     0.93781   0.55013   0.37810   0.03911  Uani   1.00
C252   C     0.97312   0.41960   0.89290   0.04800  Uani   1.00
H253   H     0.95510   0.40440   0.97680   0.05800  Uiso   1.00
C254   C     0.87899   0.55870   0.22570   0.05056  Uani   1.00
H255   H     0.87140   0.53050   0.17640   0.06100  Uiso   1.00
C256   C     0.89855   0.63960   0.36030   0.04811  Uani   1.00
H257   H     0.90570   0.66800   0.40770   0.05800  Uiso   1.00
C258   C     0.91320   0.45600   0.07340   0.05300  Uani   1.00
H259   H     0.94530   0.47840   0.08910   0.06400  Uiso   1.00
C260   C     0.83620   0.40610   0.17150   0.06433  Uani   1.00
C261   C     0.85635   0.58310   0.19180   0.05022  Uani   1.00
H262   H     0.83310   0.57100   0.11790   0.06000  Uiso   1.00
C263   C     0.82040   0.39010   0.03150   0.07056  Uani   1.00
H264   H     0.78850   0.36720   0.01670   0.08500  Uiso   1.00
O265   O     0.82130   0.40210   0.42740   0.12756  Uani   1.00
C266   C     0.92260   0.61740   0.40040   0.04922  Uani   1.00
H267   H     0.94580   0.63030   0.47420   0.05900  Uiso   1.00
C268   C     0.85010   0.40670   0.91390   0.05822  Uani   1.00
H269   H     0.83860   0.39520   0.81900   0.07100  Uiso   1.00
C270   C     0.88260   0.43890   0.19220   0.06056  Uani   1.00
H271   H     0.89390   0.44990   0.28750   0.07200  Uiso   1.00
O272   O     0.76170   0.35930   0.27790   0.16267  Uani   1.00
C273   C     0.80430   0.38680   0.29910   0.10556  Uani   1.00
N274   N     0.66584   0.79884   0.02243   0.03867  Uani   1.00
N275   N     0.60859   0.83448   0.90813   0.03740  Uani   1.00
N276   N     0.53230   0.95632   0.59133   0.04322  Uani   1.00
C277   C     0.58562   0.81783   0.03573   0.03622  Uani   1.00
C278   C     0.58938   0.85884   0.84363   0.03667  Uani   1.00
C279   C     0.55287   0.85623   0.93473   0.04456  Uani   1.00
H280   H     0.53397   0.86983   0.91533   0.05400  Uiso   1.00
C281   C     0.59592   0.79262   0.14013   0.03933  Uani   1.00
C282   C     0.55019   0.83076   0.05323   0.04378  Uani   1.00
H283   H     0.52907   0.82293   0.13263   0.05200  Uiso   1.00
C284   C     0.57944   0.90937   0.66573   0.04133  Uani   1.00
C285   C     0.63269   0.78334   0.13053   0.04044  Uani   1.00
C286   C     0.56411   0.77403   0.26653   0.04478  Uani   1.00
C287   C     0.69279   0.77855   0.04693   0.03733  Uani   1.00
C288   C     0.67658   0.74983   0.17623   0.04733  Uani   1.00
H289   H     0.68917   0.73213   0.21773   0.05700  Uiso   1.00
C290   C     0.60448   0.88346   0.71143   0.03911  Uani   1.00
C291   C     0.63979   0.75293   0.22623   0.04800  Uani   1.00
H292   H     0.62177   0.73773   0.31013   0.05800  Uiso   1.00
C293   C     0.54566   0.89203   0.55903   0.05056  Uani   1.00
H294   H     0.53807   0.86383   0.50973   0.06100  Uiso   1.00
C295   C     0.56522   0.97293   0.69363   0.04811  Uani   1.00
H296   H     0.57237   0.00133   0.74103   0.05800  Uiso   1.00
C297   C     0.57987   0.78933   0.40673   0.05300  Uani   1.00
H298   H     0.61197   0.81173   0.42243   0.06400  Uiso   1.00
C299   C     0.50287   0.73943   0.50483   0.06433  Uani   1.00
C300   C     0.52302   0.91643   0.52513   0.05022  Uani   1.00
H301   H     0.49977   0.90433   0.45123   0.06000  Uiso   1.00
C302   C     0.48707   0.72343   0.36483   0.07056  Uani   1.00
H303   H     0.45517   0.70053   0.35003   0.08500  Uiso   1.00
O304   O     0.48797   0.73543   0.76073   0.12756  Uani   1.00
C305   C     0.58927   0.95073   0.73373   0.04922  Uani   1.00
H306   H     0.61247   0.96363   0.80753   0.05900  Uiso   1.00
C307   C     0.51677   0.74003   0.24723   0.05822  Uani   1.00
H308   H     0.50527   0.72853   0.15233   0.07100  Uiso   1.00
C309   C     0.54927   0.77223   0.52553   0.06056  Uani   1.00
H310   H     0.56057   0.78323   0.62083   0.07200  Uiso   1.00
O311   O     0.42837   0.69263   0.61123   0.16267  Uani   1.00
C312   C     0.47097   0.72013   0.63243   0.10556  Uani   1.00
N313   N     0.33250   0.13218   0.35577   0.03867  Uani   1.00
N314   N     0.27525   0.16782   0.24147   0.03740  Uani   1.00
N315   N     0.19896   0.28966   0.92467   0.04322  Uani   1.00
C316   C     0.25228   0.15117   0.36907   0.03622  Uani   1.00
C317   C     0.25604   0.19218   0.17697   0.03667  Uani   1.00
C318   C     0.21953   0.18957   0.26807   0.04456  Uani   1.00
H319   H     0.20063   0.20317   0.24867   0.05400  Uiso   1.00
C320   C     0.26258   0.12596   0.47347   0.03933  Uani   1.00
C321   C     0.21685   0.16410   0.38657   0.04378  Uani   1.00
H322   H     0.19573   0.15627   0.46597   0.05200  Uiso   1.00
C323   C     0.24610   0.24271   0.99907   0.04133  Uani   1.00
C324   C     0.29935   0.11668   0.46387   0.04044  Uani   1.00
C325   C     0.23077   0.10737   0.59987   0.04478  Uani   1.00
C326   C     0.35945   0.11189   0.38027   0.03733  Uani   1.00
C327   C     0.34324   0.08317   0.50957   0.04733  Uani   1.00
H328   H     0.35583   0.06547   0.55107   0.05700  Uiso   1.00
C329   C     0.27114   0.21680   0.04477   0.03911  Uani   1.00
C330   C     0.30645   0.08627   0.55957   0.04800  Uani   1.00
H331   H     0.28843   0.07107   0.64347   0.05800  Uiso   1.00
C332   C     0.21232   0.22537   0.89237   0.05056  Uani   1.00
H333   H     0.20473   0.19717   0.84307   0.06100  Uiso   1.00
C334   C     0.23188   0.30627   0.02697   0.04811  Uani   1.00
H335   H     0.23903   0.33467   0.07437   0.05800  Uiso   1.00
C336   C     0.24653   0.12267   0.74007   0.05300  Uani   1.00
H337   H     0.27863   0.14507   0.75577   0.06400  Uiso   1.00
C338   C     0.16953   0.07277   0.83817   0.06433  Uani   1.00
C339   C     0.18968   0.24977   0.85847   0.05022  Uani   1.00
H340   H     0.16643   0.23767   0.78457   0.06000  Uiso   1.00
C341   C     0.15373   0.05677   0.69817   0.07056  Uani   1.00
H342   H     0.12183   0.03387   0.68337   0.08500  Uiso   1.00
O343   O     0.15463   0.06877   0.09407   0.12756  Uani   1.00
C344   C     0.25593   0.28407   0.06707   0.04922  Uani   1.00
H345   H     0.27913   0.29697   0.14087   0.05900  Uiso   1.00
C346   C     0.18343   0.07337   0.58057   0.05822  Uani   1.00
H347   H     0.17193   0.06187   0.48567   0.07100  Uiso   1.00
C348   C     0.21593   0.10557   0.85887   0.06056  Uani   1.00
H349   H     0.22723   0.11657   0.95417   0.07200  Uiso   1.00
O350   O     0.09503   0.02597   0.94457   0.16267  Uani   1.00
C351   C     0.13763   0.05347   0.96577   0.10556  Uani   1.00
N352   N     0.46551   0.46634   0.31090   0.03867  Uani   1.00
N353   N     0.50115   0.55923   0.42520   0.03740  Uani   1.00
N354   N     0.62299   0.75736   0.74200   0.04322  Uani   1.00
C355   C     0.48450   0.56555   0.29760   0.03622  Uani   1.00
C356   C     0.52551   0.60280   0.48970   0.03667  Uani   1.00
C357   C     0.52290   0.63670   0.39860   0.04456  Uani   1.00
H358   H     0.53650   0.66920   0.41800   0.05400  Uiso   1.00
C359   C     0.45929   0.53004   0.19320   0.03933  Uani   1.00
C360   C     0.49743   0.61391   0.28010   0.04378  Uani   1.00
H361   H     0.48960   0.62720   0.20070   0.05200  Uiso   1.00
C362   C     0.57604   0.66327   0.66760   0.04133  Uani   1.00
C363   C     0.45001   0.48399   0.20280   0.04044  Uani   1.00
C364   C     0.44070   0.54326   0.06680   0.04478  Uani   1.00
C365   C     0.44522   0.41910   0.28640   0.03733  Uani   1.00
C366   C     0.41650   0.40659   0.15710   0.04733  Uani   1.00
H367   H     0.39880   0.37630   0.11560   0.05700  Uiso   1.00
C368   C     0.55013   0.61232   0.62190   0.03911  Uani   1.00
C369   C     0.41960   0.44648   0.10710   0.04800  Uani   1.00
H370   H     0.40440   0.44930   0.02320   0.05800  Uiso   1.00
C371   C     0.55870   0.67971   0.77430   0.05056  Uani   1.00
H372   H     0.53050   0.65910   0.82360   0.06100  Uiso   1.00
C373   C     0.63960   0.74105   0.63970   0.04811  Uani   1.00
H374   H     0.66800   0.76230   0.59230   0.05800  Uiso   1.00
C375   C     0.45600   0.54280   0.92660   0.05300  Uani   1.00
H376   H     0.47840   0.53310   0.91090   0.06400  Uiso   1.00
C377   C     0.40610   0.56990   0.82850   0.06433  Uani   1.00
C378   C     0.58310   0.72675   0.80820   0.05022  Uani   1.00
H379   H     0.57100   0.73790   0.88210   0.06000  Uiso   1.00
C380   C     0.39010   0.56970   0.96850   0.07056  Uani   1.00
H381   H     0.36720   0.57870   0.98330   0.08500  Uiso   1.00
O382   O     0.40210   0.58080   0.57260   0.12756  Uani   1.00
C383   C     0.61740   0.69480   0.59960   0.04922  Uani   1.00
H384   H     0.63030   0.68450   0.52580   0.05900  Uiso   1.00
C385   C     0.40670   0.55660   0.08610   0.05822  Uani   1.00
H386   H     0.39520   0.55660   0.18100   0.07100  Uiso   1.00
C387   C     0.43890   0.55630   0.80780   0.06056  Uani   1.00
H388   H     0.44990   0.55600   0.71250   0.07200  Uiso   1.00
O389   O     0.35930   0.59760   0.72210   0.16267  Uani   1.00
C390   C     0.38680   0.58250   0.70090   0.10556  Uani   1.00
N391   N     0.13218   0.79967   0.64423   0.03867  Uani   1.00
N392   N     0.16782   0.89256   0.75853   0.03740  Uani   1.00
N393   N     0.28966   0.09069   0.07533   0.04322  Uani   1.00
C394   C     0.15117   0.89888   0.63093   0.03622  Uani   1.00
C395   C     0.19218   0.93613   0.82303   0.03667  Uani   1.00
C396   C     0.18957   0.97003   0.73193   0.04456  Uani   1.00
H397   H     0.20317   0.00253   0.75133   0.05400  Uiso   1.00
C398   C     0.12596   0.86337   0.52653   0.03933  Uani   1.00
C399   C     0.16410   0.94724   0.61343   0.04378  Uani   1.00
H400   H     0.15627   0.96053   0.53403   0.05200  Uiso   1.00
C401   C     0.24271   0.99660   0.00093   0.04133  Uani   1.00
C402   C     0.11668   0.81732   0.53613   0.04044  Uani   1.00
C403   C     0.10737   0.87659   0.40013   0.04478  Uani   1.00
C404   C     0.11189   0.75243   0.61973   0.03733  Uani   1.00
C405   C     0.08317   0.73992   0.49043   0.04733  Uani   1.00
H406   H     0.06547   0.70963   0.44893   0.05700  Uiso   1.00
C407   C     0.21680   0.94565   0.95523   0.03911  Uani   1.00
C408   C     0.08627   0.77981   0.44043   0.04800  Uani   1.00
H409   H     0.07107   0.78263   0.35653   0.05800  Uiso   1.00
C410   C     0.22537   0.01304   0.10763   0.05056  Uani   1.00
H411   H     0.19717   0.99243   0.15693   0.06100  Uiso   1.00
C412   C     0.30627   0.07438   0.97303   0.04811  Uani   1.00
H413   H     0.33467   0.09563   0.92563   0.05800  Uiso   1.00
C414   C     0.12267   0.87613   0.25993   0.05300  Uani   1.00
H415   H     0.14507   0.86643   0.24423   0.06400  Uiso   1.00
C416   C     0.07277   0.90323   0.16183   0.06433  Uani   1.00
C417   C     0.24977   0.06008   0.14153   0.05022  Uani   1.00
H418   H     0.23767   0.07123   0.21543   0.06000  Uiso   1.00
C419   C     0.05677   0.90303   0.30183   0.07056  Uani   1.00
H420   H     0.03387   0.91203   0.31663   0.08500  Uiso   1.00
O421   O     0.06877   0.91413   0.90593   0.12756  Uani   1.00
C422   C     0.28407   0.02813   0.93293   0.04922  Uani   1.00
H423   H     0.29697   0.01783   0.85913   0.05900  Uiso   1.00
C424   C     0.07337   0.88993   0.41943   0.05822  Uani   1.00
H425   H     0.06187   0.88993   0.51433   0.07100  Uiso   1.00
C426   C     0.10557   0.88963   0.14113   0.06056  Uani   1.00
H427   H     0.11657   0.88933   0.04583   0.07200  Uiso   1.00
O428   O     0.02597   0.93093   0.05543   0.16267  Uani   1.00
C429   C     0.05347   0.91583   0.03423   0.10556  Uani   1.00
N430   N     0.79884   0.13301   0.97757   0.03867  Uani   1.00
N431   N     0.83448   0.22590   0.09187   0.03740  Uani   1.00
N432   N     0.95632   0.42403   0.40867   0.04322  Uani   1.00
C433   C     0.81783   0.23222   0.96427   0.03622  Uani   1.00
C434   C     0.85884   0.26947   0.15637   0.03667  Uani   1.00
C435   C     0.85623   0.30337   0.06527   0.04456  Uani   1.00
H436   H     0.86983   0.33587   0.08467   0.05400  Uiso   1.00
C437   C     0.79262   0.19671   0.85987   0.03933  Uani   1.00
C438   C     0.83076   0.28058   0.94677   0.04378  Uani   1.00
H439   H     0.82293   0.29387   0.86737   0.05200  Uiso   1.00
C440   C     0.90937   0.32994   0.33427   0.04133  Uani   1.00
C441   C     0.78334   0.15066   0.86947   0.04044  Uani   1.00
C442   C     0.77403   0.20993   0.73347   0.04478  Uani   1.00
C443   C     0.77855   0.08577   0.95307   0.03733  Uani   1.00
C444   C     0.74983   0.07326   0.82377   0.04733  Uani   1.00
H445   H     0.73213   0.04297   0.78227   0.05700  Uiso   1.00
C446   C     0.88346   0.27899   0.28857   0.03911  Uani   1.00
C447   C     0.75293   0.11315   0.77377   0.04800  Uani   1.00
H448   H     0.73773   0.11597   0.68987   0.05800  Uiso   1.00
C449   C     0.89203   0.34638   0.44097   0.05056  Uani   1.00
H450   H     0.86383   0.32577   0.49027   0.06100  Uiso   1.00
C451   C     0.97293   0.40772   0.30637   0.04811  Uani   1.00
H452   H     0.00133   0.42897   0.25897   0.05800  Uiso   1.00
C453   C     0.78933   0.20947   0.59327   0.05300  Uani   1.00
H454   H     0.81173   0.19977   0.57757   0.06400  Uiso   1.00
C455   C     0.73943   0.23657   0.49517   0.06433  Uani   1.00
C456   C     0.91643   0.39342   0.47487   0.05022  Uani   1.00
H457   H     0.90433   0.40457   0.54877   0.06000  Uiso   1.00
C458   C     0.72343   0.23637   0.63517   0.07056  Uani   1.00
H459   H     0.70053   0.24537   0.64997   0.08500  Uiso   1.00
O460   O     0.73543   0.24747   0.23927   0.12756  Uani   1.00
C461   C     0.95073   0.36147   0.26627   0.04922  Uani   1.00
H462   H     0.96363   0.35117   0.19247   0.05900  Uiso   1.00
C463   C     0.74003   0.22327   0.75277   0.05822  Uani   1.00
H464   H     0.72853   0.22327   0.84767   0.07100  Uiso   1.00
C465   C     0.77223   0.22297   0.47447   0.06056  Uani   1.00
H466   H     0.78323   0.22267   0.37917   0.07200  Uiso   1.00
O467   O     0.69263   0.26427   0.38877   0.16267  Uani   1.00
C468   C     0.72013   0.24917   0.36757   0.10556  Uani   1.00
N469   N     0.53366   0.99917   0.31090   0.03867  Uani   1.00
N470   N     0.44077   0.94192   0.42520   0.03740  Uani   1.00
N471   N     0.24264   0.86563   0.74200   0.04322  Uani   1.00
C472   C     0.43445   0.91895   0.29760   0.03622  Uani   1.00
C473   C     0.39720   0.92271   0.48970   0.03667  Uani   1.00
C474   C     0.36330   0.88620   0.39860   0.04456  Uani   1.00
H475   H     0.33080   0.86730   0.41800   0.05400  Uiso   1.00
C476   C     0.46996   0.92925   0.19320   0.03933  Uani   1.00
C477   C     0.38609   0.88352   0.28010   0.04378  Uani   1.00
H478   H     0.37280   0.86240   0.20070   0.05200  Uiso   1.00
C479   C     0.33673   0.91277   0.66760   0.04133  Uani   1.00
C480   C     0.51601   0.96602   0.20280   0.04044  Uani   1.00
C481   C     0.45674   0.89744   0.06680   0.04478  Uani   1.00
C482   C     0.58090   0.02612   0.28640   0.03733  Uani   1.00
C483   C     0.59341   0.00991   0.15710   0.04733  Uani   1.00
H484   H     0.62370   0.02250   0.11560   0.05700  Uiso   1.00
C485   C     0.38768   0.93781   0.62190   0.03911  Uani   1.00
C486   C     0.55352   0.97312   0.10710   0.04800  Uani   1.00
H487   H     0.55070   0.95510   0.02320   0.05800  Uiso   1.00
C488   C     0.32029   0.87899   0.77430   0.05056  Uani   1.00
H489   H     0.34090   0.87140   0.82360   0.06100  Uiso   1.00
C490   C     0.25895   0.89855   0.63970   0.04811  Uani   1.00
H491   H     0.23770   0.90570   0.59230   0.05800  Uiso   1.00
C492   C     0.45720   0.91320   0.92660   0.05300  Uani   1.00
H493   H     0.46690   0.94530   0.91090   0.06400  Uiso   1.00
C494   C     0.43010   0.83620   0.82850   0.06433  Uani   1.00
C495   C     0.27325   0.85635   0.80820   0.05022  Uani   1.00
H496   H     0.26210   0.83310   0.88210   0.06000  Uiso   1.00
C497   C     0.43030   0.82040   0.96850   0.07056  Uani   1.00
H498   H     0.42130   0.78850   0.98330   0.08500  Uiso   1.00
O499   O     0.41920   0.82130   0.57260   0.12756  Uani   1.00
C500   C     0.30520   0.92260   0.59960   0.04922  Uani   1.00
H501   H     0.31550   0.94580   0.52580   0.05900  Uiso   1.00
C502   C     0.44340   0.85010   0.08610   0.05822  Uani   1.00
H503   H     0.44340   0.83860   0.18100   0.07100  Uiso   1.00
C504   C     0.44370   0.88260   0.80780   0.06056  Uani   1.00
H505   H     0.44400   0.89390   0.71250   0.07200  Uiso   1.00
O506   O     0.40240   0.76170   0.72210   0.16267  Uani   1.00
C507   C     0.41750   0.80430   0.70090   0.10556  Uani   1.00
N508   N     0.20033   0.33250   0.64423   0.03867  Uani   1.00
N509   N     0.10744   0.27525   0.75853   0.03740  Uani   1.00
N510   N     0.90931   0.19896   0.07533   0.04322  Uani   1.00
C511   C     0.10112   0.25228   0.63093   0.03622  Uani   1.00
C512   C     0.06387   0.25604   0.82303   0.03667  Uani   1.00
C513   C     0.02997   0.21953   0.73193   0.04456  Uani   1.00
H514   H     0.99747   0.20063   0.75133   0.05400  Uiso   1.00
C515   C     0.13663   0.26258   0.52653   0.03933  Uani   1.00
C516   C     0.05276   0.21685   0.61343   0.04378  Uani   1.00
H517   H     0.03947   0.19573   0.53403   0.05200  Uiso   1.00
C518   C     0.00340   0.24610   0.00093   0.04133  Uani   1.00
C519   C     0.18268   0.29935   0.53613   0.04044  Uani   1.00
C520   C     0.12341   0.23077   0.40013   0.04478  Uani   1.00
C521   C     0.24757   0.35945   0.61973   0.03733  Uani   1.00
C522   C     0.26008   0.34324   0.49043   0.04733  Uani   1.00
H523   H     0.29037   0.35583   0.44893   0.05700  Uiso   1.00
C524   C     0.05435   0.27114   0.95523   0.03911  Uani   1.00
C525   C     0.22019   0.30645   0.44043   0.04800  Uani   1.00
H526   H     0.21737   0.28843   0.35653   0.05800  Uiso   1.00
C527   C     0.98696   0.21232   0.10763   0.05056  Uani   1.00
H528   H     0.00757   0.20473   0.15693   0.06100  Uiso   1.00
C529   C     0.92562   0.23188   0.97303   0.04811  Uani   1.00
H530   H     0.90437   0.23903   0.92563   0.05800  Uiso   1.00
C531   C     0.12387   0.24653   0.25993   0.05300  Uani   1.00
H532   H     0.13357   0.27863   0.24423   0.06400  Uiso   1.00
C533   C     0.09677   0.16953   0.16183   0.06433  Uani   1.00
C534   C     0.93992   0.18968   0.14153   0.05022  Uani   1.00
H535   H     0.92877   0.16643   0.21543   0.06000  Uiso   1.00
C536   C     0.09697   0.15373   0.30183   0.07056  Uani   1.00
H537   H     0.08797   0.12183   0.31663   0.08500  Uiso   1.00
O538   O     0.08587   0.15463   0.90593   0.12756  Uani   1.00
C539   C     0.97187   0.25593   0.93293   0.04922  Uani   1.00
H540   H     0.98217   0.27913   0.85913   0.05900  Uiso   1.00
C541   C     0.11007   0.18343   0.41943   0.05822  Uani   1.00
H542   H     0.11007   0.17193   0.51433   0.07100  Uiso   1.00
C543   C     0.11037   0.21593   0.14113   0.06056  Uani   1.00
H544   H     0.11067   0.22723   0.04583   0.07200  Uiso   1.00
O545   O     0.06907   0.09503   0.05543   0.16267  Uani   1.00
C546   C     0.08417   0.13763   0.03423   0.10556  Uani   1.00
N547   N     0.86699   0.66584   0.97757   0.03867  Uani   1.00
N548   N     0.77410   0.60859   0.09187   0.03740  Uani   1.00
N549   N     0.57597   0.53230   0.40867   0.04322  Uani   1.00
C550   C     0.76778   0.58562   0.96427   0.03622  Uani   1.00
C551   C     0.73053   0.58938   0.15637   0.03667  Uani   1.00
C552   C     0.69663   0.55287   0.06527   0.04456  Uani   1.00
H553   H     0.66413   0.53397   0.08467   0.05400  Uiso   1.00
C554   C     0.80329   0.59592   0.85987   0.03933  Uani   1.00
C555   C     0.71942   0.55019   0.94677   0.04378  Uani   1.00
H556   H     0.70613   0.52907   0.86737   0.05200  Uiso   1.00
C557   C     0.67006   0.57944   0.33427   0.04133  Uani   1.00
C558   C     0.84934   0.63269   0.86947   0.04044  Uani   1.00
C559   C     0.79007   0.56411   0.73347   0.04478  Uani   1.00
C560   C     0.91423   0.69279   0.95307   0.03733  Uani   1.00
C561   C     0.92674   0.67658   0.82377   0.04733  Uani   1.00
H562   H     0.95703   0.68917   0.78227   0.05700  Uiso   1.00
C563   C     0.72101   0.60448   0.28857   0.03911  Uani   1.00
C564   C     0.88685   0.63979   0.77377   0.04800  Uani   1.00
H565   H     0.88403   0.62177   0.68987   0.05800  Uiso   1.00
C566   C     0.65362   0.54566   0.44097   0.05056  Uani   1.00
H567   H     0.67423   0.53807   0.49027   0.06100  Uiso   1.00
C568   C     0.59228   0.56522   0.30637   0.04811  Uani   1.00
H569   H     0.57103   0.57237   0.25897   0.05800  Uiso   1.00
C570   C     0.79053   0.57987   0.59327   0.05300  Uani   1.00
H571   H     0.80023   0.61197   0.57757   0.06400  Uiso   1.00
C572   C     0.76343   0.50287   0.49517   0.06433  Uani   1.00
C573   C     0.60658   0.52302   0.47487   0.05022  Uani   1.00
H574   H     0.59543   0.49977   0.54877   0.06000  Uiso   1.00
C575   C     0.76363   0.48707   0.63517   0.07056  Uani   1.00
H576   H     0.75463   0.45517   0.64997   0.08500  Uiso   1.00
O577   O     0.75253   0.48797   0.23927   0.12756  Uani   1.00
C578   C     0.63853   0.58927   0.26627   0.04922  Uani   1.00
H579   H     0.64883   0.61247   0.19247   0.05900  Uiso   1.00
C580   C     0.77673   0.51677   0.75277   0.05822  Uani   1.00
H581   H     0.77673   0.50527   0.84767   0.07100  Uiso   1.00
C582   C     0.77703   0.54927   0.47447   0.06056  Uani   1.00
H583   H     0.77733   0.56057   0.37917   0.07200  Uiso   1.00
O584   O     0.73573   0.42837   0.38877   0.16267  Uani   1.00
C585   C     0.75083   0.47097   0.36757   0.10556  Uani   1.00
N586   N     0.00083   0.53449   0.31090   0.03867  Uani   1.00
N587   N     0.05808   0.49885   0.42520   0.03740  Uani   1.00
N588   N     0.13437   0.37701   0.74200   0.04322  Uani   1.00
C589   C     0.08105   0.51550   0.29760   0.03622  Uani   1.00
C590   C     0.07729   0.47449   0.48970   0.03667  Uani   1.00
C591   C     0.11380   0.47710   0.39860   0.04456  Uani   1.00
H592   H     0.13270   0.46350   0.41800   0.05400  Uiso   1.00
C593   C     0.07075   0.54071   0.19320   0.03933  Uani   1.00
C594   C     0.11648   0.50257   0.28010   0.04378  Uani   1.00
H595   H     0.13760   0.51040   0.20070   0.05200  Uiso   1.00
C596   C     0.08723   0.42396   0.66760   0.04133  Uani   1.00
C597   C     0.03398   0.54999   0.20280   0.04044  Uani   1.00
C598   C     0.10256   0.55930   0.06680   0.04478  Uani   1.00
C599   C     0.97388   0.55478   0.28640   0.03733  Uani   1.00
C600   C     0.99009   0.58350   0.15710   0.04733  Uani   1.00
H601   H     0.97750   0.60120   0.11560   0.05700  Uiso   1.00
C602   C     0.06219   0.44987   0.62190   0.03911  Uani   1.00
C603   C     0.02688   0.58040   0.10710   0.04800  Uani   1.00
H604   H     0.04490   0.59560   0.02320   0.05800  Uiso   1.00
C605   C     0.12101   0.44130   0.77430   0.05056  Uani   1.00
H606   H     0.12860   0.46950   0.82360   0.06100  Uiso   1.00
C607   C     0.10145   0.36040   0.63970   0.04811  Uani   1.00
H608   H     0.09430   0.33200   0.59230   0.05800  Uiso   1.00
C609   C     0.08680   0.54400   0.92660   0.05300  Uani   1.00
H610   H     0.05470   0.52160   0.91090   0.06400  Uiso   1.00
C611   C     0.16380   0.59390   0.82850   0.06433  Uani   1.00
C612   C     0.14365   0.41690   0.80820   0.05022  Uani   1.00
H613   H     0.16690   0.42900   0.88210   0.06000  Uiso   1.00
C614   C     0.17960   0.60990   0.96850   0.07056  Uani   1.00
H615   H     0.21150   0.63280   0.98330   0.08500  Uiso   1.00
O616   O     0.17870   0.59790   0.57260   0.12756  Uani   1.00
C617   C     0.07740   0.38260   0.59960   0.04922  Uani   1.00
H618   H     0.05420   0.36970   0.52580   0.05900  Uiso   1.00
C619   C     0.14990   0.59330   0.08610   0.05822  Uani   1.00
H620   H     0.16140   0.60480   0.18100   0.07100  Uiso   1.00
C621   C     0.11740   0.56110   0.80780   0.06056  Uani   1.00
H622   H     0.10610   0.55010   0.71250   0.07200  Uiso   1.00
O623   O     0.23830   0.64070   0.72210   0.16267  Uani   1.00
C624   C     0.19570   0.61320   0.70090   0.10556  Uani   1.00
N625   N     0.66750   0.86782   0.64423   0.03867  Uani   1.00
N626   N     0.72475   0.83218   0.75853   0.03740  Uani   1.00
N627   N     0.80104   0.71034   0.07533   0.04322  Uani   1.00
C628   C     0.74772   0.84883   0.63093   0.03622  Uani   1.00
C629   C     0.74396   0.80782   0.82303   0.03667  Uani   1.00
C630   C     0.78047   0.81043   0.73193   0.04456  Uani   1.00
H631   H     0.79937   0.79683   0.75133   0.05400  Uiso   1.00
C632   C     0.73742   0.87404   0.52653   0.03933  Uani   1.00
C633   C     0.78315   0.83590   0.61343   0.04378  Uani   1.00
H634   H     0.80427   0.84373   0.53403   0.05200  Uiso   1.00
C635   C     0.75390   0.75729   0.00093   0.04133  Uani   1.00
C636   C     0.70065   0.88332   0.53613   0.04044  Uani   1.00
C637   C     0.76923   0.89263   0.40013   0.04478  Uani   1.00
C638   C     0.64055   0.88811   0.61973   0.03733  Uani   1.00
C639   C     0.65676   0.91683   0.49043   0.04733  Uani   1.00
H640   H     0.64417   0.93453   0.44893   0.05700  Uiso   1.00
C641   C     0.72886   0.78320   0.95523   0.03911  Uani   1.00
C642   C     0.69355   0.91373   0.44043   0.04800  Uani   1.00
H643   H     0.71157   0.92893   0.35653   0.05800  Uiso   1.00
C644   C     0.78768   0.77463   0.10763   0.05056  Uani   1.00
H645   H     0.79527   0.80283   0.15693   0.06100  Uiso   1.00
C646   C     0.76812   0.69373   0.97303   0.04811  Uani   1.00
H647   H     0.76097   0.66533   0.92563   0.05800  Uiso   1.00
C648   C     0.75347   0.87733   0.25993   0.05300  Uani   1.00
H649   H     0.72137   0.85493   0.24423   0.06400  Uiso   1.00
C650   C     0.83047   0.92723   0.16183   0.06433  Uani   1.00
C651   C     0.81032   0.75023   0.14153   0.05022  Uani   1.00
H652   H     0.83357   0.76233   0.21543   0.06000  Uiso   1.00
C653   C     0.84627   0.94323   0.30183   0.07056  Uani   1.00
H654   H     0.87817   0.96613   0.31663   0.08500  Uiso   1.00
O655   O     0.84537   0.93123   0.90593   0.12756  Uani   1.00
C656   C     0.74407   0.71593   0.93293   0.04922  Uani   1.00
H657   H     0.72087   0.70303   0.85913   0.05900  Uiso   1.00
C658   C     0.81657   0.92663   0.41943   0.05822  Uani   1.00
H659   H     0.82807   0.93813   0.51433   0.07100  Uiso   1.00
C660   C     0.78407   0.89443   0.14113   0.06056  Uani   1.00
H661   H     0.77277   0.88343   0.04583   0.07200  Uiso   1.00
O662   O     0.90497   0.97403   0.05543   0.16267  Uani   1.00
C663   C     0.86237   0.94653   0.03423   0.10556  Uani   1.00
N664   N     0.33416   0.20116   0.97757   0.03867  Uani   1.00
N665   N     0.39141   0.16552   0.09187   0.03740  Uani   1.00
N666   N     0.46770   0.04368   0.40867   0.04322  Uani   1.00
C667   C     0.41438   0.18217   0.96427   0.03622  Uani   1.00
C668   C     0.41062   0.14116   0.15637   0.03667  Uani   1.00
C669   C     0.44713   0.14377   0.06527   0.04456  Uani   1.00
H670   H     0.46603   0.13017   0.08467   0.05400  Uiso   1.00
C671   C     0.40408   0.20738   0.85987   0.03933  Uani   1.00
C672   C     0.44981   0.16924   0.94677   0.04378  Uani   1.00
H673   H     0.47093   0.17707   0.86737   0.05200  Uiso   1.00
C674   C     0.42056   0.09063   0.33427   0.04133  Uani   1.00
C675   C     0.36731   0.21666   0.86947   0.04044  Uani   1.00
C676   C     0.43589   0.22597   0.73347   0.04478  Uani   1.00
C677   C     0.30721   0.22145   0.95307   0.03733  Uani   1.00
C678   C     0.32342   0.25017   0.82377   0.04733  Uani   1.00
H679   H     0.31083   0.26787   0.78227   0.05700  Uiso   1.00
C680   C     0.39552   0.11654   0.28857   0.03911  Uani   1.00
C681   C     0.36021   0.24707   0.77377   0.04800  Uani   1.00
H682   H     0.37823   0.26227   0.68987   0.05800  Uiso   1.00
C683   C     0.45434   0.10797   0.44097   0.05056  Uani   1.00
H684   H     0.46193   0.13617   0.49027   0.06100  Uiso   1.00
C685   C     0.43478   0.02707   0.30637   0.04811  Uani   1.00
H686   H     0.42763   0.99867   0.25897   0.05800  Uiso   1.00
C687   C     0.42013   0.21067   0.59327   0.05300  Uani   1.00
H688   H     0.38803   0.18827   0.57757   0.06400  Uiso   1.00
C689   C     0.49713   0.26057   0.49517   0.06433  Uani   1.00
C690   C     0.47698   0.08357   0.47487   0.05022  Uani   1.00
H691   H     0.50023   0.09567   0.54877   0.06000  Uiso   1.00
C692   C     0.51293   0.27657   0.63517   0.07056  Uani   1.00
H693   H     0.54483   0.29947   0.64997   0.08500  Uiso   1.00
O694   O     0.51203   0.26457   0.23927   0.12756  Uani   1.00
C695   C     0.41073   0.04927   0.26627   0.04922  Uani   1.00
H696   H     0.38753   0.03637   0.19247   0.05900  Uiso   1.00
C697   C     0.48323   0.25997   0.75277   0.05822  Uani   1.00
H698   H     0.49473   0.27147   0.84767   0.07100  Uiso   1.00
C699   C     0.45073   0.22777   0.47447   0.06056  Uani   1.00
H700   H     0.43943   0.21677   0.37917   0.07200  Uiso   1.00
O701   O     0.57163   0.30737   0.38877   0.16267  Uani   1.00
C702   C     0.52903   0.27987   0.36757   0.10556  Uani   1.00
Co703  Co    0.33333   0.16667   0.16667   0.02206  Uani   1.00
Co704  Co    0.00000   0.50000   0.50000   0.02206  Uani   1.00
Co705  Co    0.83333   0.16667   0.16667   0.02206  Uani   1.00
Co706  Co    0.50000   0.50000   0.50000   0.02206  Uani   1.00
Co707  Co    0.83333   0.66667   0.16667   0.02206  Uani   1.00
Co708  Co    0.50000  -0.00000   0.50000   0.02206  Uani   1.00
Co709  Co    0.66667   0.83333   0.83333   0.02206  Uani   1.00
Co710  Co    0.16667   0.83333   0.83333   0.02206  Uani   1.00
Co711  Co    0.16667   0.33333   0.83333   0.02206  Uani   1.00
loop_
_atom_site_aniso_label
_atom_site_aniso_U_11
_atom_site_aniso_U_22
_atom_site_aniso_U_33
_atom_site_aniso_U_12
_atom_site_aniso_U_13
_atom_site_aniso_U_23
N1        0.02900   0.02800   0.05600   0.01200   0.00120   0.00310
N2        0.02700   0.02600   0.05500   0.01010  -0.00300  -0.00670
N3        0.04300   0.02600   0.05900   0.01600  -0.00400  -0.00600
C4        0.03100   0.02700   0.05000   0.01400  -0.00300  -0.00000
C5        0.03200   0.02300   0.05000   0.01000  -0.00000  -0.00300
C6        0.04200   0.02600   0.06300   0.01500  -0.00300   0.00100
C8        0.03300   0.02800   0.05400   0.01300   0.00100  -0.00100
C9        0.03800   0.03100   0.05800   0.01400  -0.00200   0.00400
C11       0.04400   0.02400   0.05600   0.01700  -0.00400  -0.00300
C12       0.03100   0.03300   0.05200   0.01200  -0.00100   0.00000
C13       0.04000   0.03300   0.05700   0.01500  -0.00500  -0.00400
C14       0.03000   0.02400   0.05200   0.00900  -0.00200  -0.00600
C15       0.04200   0.02600   0.06600   0.01100  -0.00800  -0.00800
C17       0.03400   0.02500   0.05200   0.01000   0.00100  -0.00300
C18       0.04600   0.03200   0.06000   0.01500  -0.01400  -0.00700
C20       0.04400   0.03200   0.06500   0.01100   0.00500  -0.00500
C22       0.05100   0.02400   0.05900   0.01100   0.00400  -0.00500
C24       0.05600   0.04100   0.05900   0.02200  -0.00200  -0.00200
C26       0.05800   0.04800   0.08500   0.02500  -0.01500   0.00800
C27       0.04900   0.03100   0.06800   0.01800   0.00100  -0.01000
C29       0.06300   0.05900   0.10100   0.03900  -0.01300   0.00300
O31       0.19900   0.11500   0.08000   0.08700  -0.02500   0.00400
C32       0.04800   0.03500   0.05700   0.01500   0.00400  -0.00900
C34       0.05400   0.05700   0.07200   0.03400  -0.00400   0.00100
C36       0.05800   0.05000   0.06300   0.01900  -0.00800   0.00200
O38       0.11300   0.20600   0.19600   0.10000   0.00800   0.10500
C39       0.07500   0.08100   0.15000   0.03100  -0.02600   0.03700
N40       0.02900   0.02800   0.05600   0.01200   0.00120   0.00310
N41       0.02700   0.02600   0.05500   0.01010  -0.00300  -0.00670
N42       0.04300   0.02600   0.05900   0.01600  -0.00400  -0.00600
C43       0.03100   0.02700   0.05000   0.01400  -0.00300  -0.00000
C44       0.03200   0.02300   0.05000   0.01000  -0.00000  -0.00300
C45       0.04200   0.02600   0.06300   0.01500  -0.00300   0.00100
C47       0.03300   0.02800   0.05400   0.01300   0.00100  -0.00100
C48       0.03800   0.03100   0.05800   0.01400  -0.00200   0.00400
C50       0.04400   0.02400   0.05600   0.01700  -0.00400  -0.00300
C51       0.03100   0.03300   0.05200   0.01200  -0.00100   0.00000
C52       0.04000   0.03300   0.05700   0.01500  -0.00500  -0.00400
C53       0.03000   0.02400   0.05200   0.00900  -0.00200  -0.00600
C54       0.04200   0.02600   0.06600   0.01100  -0.00800  -0.00800
C56       0.03400   0.02500   0.05200   0.01000   0.00100  -0.00300
C57       0.04600   0.03200   0.06000   0.01500  -0.01400  -0.00700
C59       0.04400   0.03200   0.06500   0.01100   0.00500  -0.00500
C61       0.05100   0.02400   0.05900   0.01100   0.00400  -0.00500
C63       0.05600   0.04100   0.05900   0.02200  -0.00200  -0.00200
C65       0.05800   0.04800   0.08500   0.02500  -0.01500   0.00800
C66       0.04900   0.03100   0.06800   0.01800   0.00100  -0.01000
C68       0.06300   0.05900   0.10100   0.03900  -0.01300   0.00300
O70       0.19900   0.11500   0.08000   0.08700  -0.02500   0.00400
C71       0.04800   0.03500   0.05700   0.01500   0.00400  -0.00900
C73       0.05400   0.05700   0.07200   0.03400  -0.00400   0.00100
C75       0.05800   0.05000   0.06300   0.01900  -0.00800   0.00200
O77       0.11300   0.20600   0.19600   0.10000   0.00800   0.10500
C78       0.07500   0.08100   0.15000   0.03100  -0.02600   0.03700
N79       0.02900   0.02800   0.05600   0.01200   0.00120   0.00310
N80       0.02700   0.02600   0.05500   0.01010  -0.00300  -0.00670
N81       0.04300   0.02600   0.05900   0.01600  -0.00400  -0.00600
C82       0.03100   0.02700   0.05000   0.01400  -0.00300  -0.00000
C83       0.03200   0.02300   0.05000   0.01000  -0.00000  -0.00300
C84       0.04200   0.02600   0.06300   0.01500  -0.00300   0.00100
C86       0.03300   0.02800   0.05400   0.01300   0.00100  -0.00100
C87       0.03800   0.03100   0.05800   0.01400  -0.00200   0.00400
C89       0.04400   0.02400   0.05600   0.01700  -0.00400  -0.00300
C90       0.03100   0.03300   0.05200   0.01200  -0.00100   0.00000
C91       0.04000   0.03300   0.05700   0.01500  -0.00500  -0.00400
C92       0.03000   0.02400   0.05200   0.00900  -0.00200  -0.00600
C93       0.04200   0.02600   0.06600   0.01100  -0.00800  -0.00800
C95       0.03400   0.02500   0.05200   0.01000   0.00100  -0.00300
C96       0.04600   0.03200   0.06000   0.01500  -0.01400  -0.00700
C98       0.04400   0.03200   0.06500   0.01100   0.00500  -0.00500
C100      0.05100   0.02400   0.05900   0.01100   0.00400  -0.00500
C102      0.05600   0.04100   0.05900   0.02200  -0.00200  -0.00200
C104      0.05800   0.04800   0.08500   0.02500  -0.01500   0.00800
C105      0.04900   0.03100   0.06800   0.01800   0.00100  -0.01000
C107      0.06300   0.05900   0.10100   0.03900  -0.01300   0.00300
O109      0.19900   0.11500   0.08000   0.08700  -0.02500   0.00400
C110      0.04800   0.03500   0.05700   0.01500   0.00400  -0.00900
C112      0.05400   0.05700   0.07200   0.03400  -0.00400   0.00100
C114      0.05800   0.05000   0.06300   0.01900  -0.00800   0.00200
O116      0.11300   0.20600   0.19600   0.10000   0.00800   0.10500
C117      0.07500   0.08100   0.15000   0.03100  -0.02600   0.03700
N118      0.02800   0.03300   0.05600   0.01600  -0.00310  -0.00190
N119      0.02600   0.03280   0.05500   0.01590   0.00670   0.00370
N120      0.02600   0.03700   0.05900   0.01000   0.00600   0.00200
C121      0.02700   0.03000   0.05000   0.01300   0.00000  -0.00300
C122      0.02300   0.03500   0.05000   0.01300   0.00300   0.00300
C123      0.02600   0.03800   0.06300   0.01100  -0.00100  -0.00400
C125      0.02800   0.03500   0.05400   0.01500   0.00100   0.00200
C126      0.03100   0.04100   0.05800   0.01700  -0.00400  -0.00600
C128      0.02400   0.03400   0.05600   0.00700   0.00300  -0.00100
C129      0.03300   0.04000   0.05200   0.02100  -0.00000  -0.00100
C130      0.03300   0.04300   0.05700   0.01800   0.00400  -0.00100
C131      0.02400   0.03600   0.05200   0.01500   0.00600   0.00400
C132      0.02600   0.04600   0.06600   0.01500   0.00800   0.00000
C134      0.02500   0.03900   0.05200   0.01500   0.00300   0.00400
C135      0.03200   0.04800   0.06000   0.01700   0.00700  -0.00700
C137      0.03200   0.05400   0.06500   0.02100   0.00500   0.01000
C139      0.02400   0.05300   0.05900   0.01300   0.00500   0.00900
C141      0.04100   0.05300   0.05900   0.01900   0.00200  -0.00000
C143      0.04800   0.05600   0.08500   0.02300  -0.00800  -0.02300
C144      0.03100   0.04400   0.06800   0.01300   0.01000   0.01100
C146      0.05900   0.04400   0.10100   0.02000  -0.00300  -0.01600
O148      0.11500   0.14000   0.08000   0.02800  -0.00400  -0.02900
C149      0.03500   0.05300   0.05700   0.02000   0.00900   0.01300
C151      0.05700   0.04300   0.07200   0.02300  -0.00100  -0.00500
C153      0.05000   0.07000   0.06300   0.03100  -0.00200  -0.01000
O155      0.20600   0.11900   0.19600   0.10600  -0.10500  -0.09700
C156      0.08100   0.09400   0.15000   0.05000  -0.03700  -0.06300
N157      0.02800   0.03300   0.05600   0.01600  -0.00310  -0.00190
N158      0.02600   0.03280   0.05500   0.01590   0.00670   0.00370
N159      0.02600   0.03700   0.05900   0.01000   0.00600   0.00200
C160      0.02700   0.03000   0.05000   0.01300   0.00000  -0.00300
C161      0.02300   0.03500   0.05000   0.01300   0.00300   0.00300
C162      0.02600   0.03800   0.06300   0.01100  -0.00100  -0.00400
C164      0.02800   0.03500   0.05400   0.01500   0.00100   0.00200
C165      0.03100   0.04100   0.05800   0.01700  -0.00400  -0.00600
C167      0.02400   0.03400   0.05600   0.00700   0.00300  -0.00100
C168      0.03300   0.04000   0.05200   0.02100  -0.00000  -0.00100
C169      0.03300   0.04300   0.05700   0.01800   0.00400  -0.00100
C170      0.02400   0.03600   0.05200   0.01500   0.00600   0.00400
C171      0.02600   0.04600   0.06600   0.01500   0.00800   0.00000
C173      0.02500   0.03900   0.05200   0.01500   0.00300   0.00400
C174      0.03200   0.04800   0.06000   0.01700   0.00700  -0.00700
C176      0.03200   0.05400   0.06500   0.02100   0.00500   0.01000
C178      0.02400   0.05300   0.05900   0.01300   0.00500   0.00900
C180      0.04100   0.05300   0.05900   0.01900   0.00200  -0.00000
C182      0.04800   0.05600   0.08500   0.02300  -0.00800  -0.02300
C183      0.03100   0.04400   0.06800   0.01300   0.01000   0.01100
C185      0.05900   0.04400   0.10100   0.02000  -0.00300  -0.01600
O187      0.11500   0.14000   0.08000   0.02800  -0.00400  -0.02900
C188      0.03500   0.05300   0.05700   0.02000   0.00900   0.01300
C190      0.05700   0.04300   0.07200   0.02300  -0.00100  -0.00500
C192      0.05000   0.07000   0.06300   0.03100  -0.00200  -0.01000
O194      0.20600   0.11900   0.19600   0.10600  -0.10500  -0.09700
C195      0.08100   0.09400   0.15000   0.05000  -0.03700  -0.06300
N196      0.02800   0.03300   0.05600   0.01600  -0.00310  -0.00190
N197      0.02600   0.03280   0.05500   0.01590   0.00670   0.00370
N198      0.02600   0.03700   0.05900   0.01000   0.00600   0.00200
C199      0.02700   0.03000   0.05000   0.01300   0.00000  -0.00300
C200      0.02300   0.03500   0.05000   0.01300   0.00300   0.00300
C201      0.02600   0.03800   0.06300   0.01100  -0.00100  -0.00400
C203      0.02800   0.03500   0.05400   0.01500   0.00100   0.00200
C204      0.03100   0.04100   0.05800   0.01700  -0.00400  -0.00600
C206      0.02400   0.03400   0.05600   0.00700   0.00300  -0.00100
C207      0.03300   0.04000   0.05200   0.02100  -0.00000  -0.00100
C208      0.03300   0.04300   0.05700   0.01800   0.00400  -0.00100
C209      0.02400   0.03600   0.05200   0.01500   0.00600   0.00400
C210      0.02600   0.04600   0.06600   0.01500   0.00800   0.00000
C212      0.02500   0.03900   0.05200   0.01500   0.00300   0.00400
C213      0.03200   0.04800   0.06000   0.01700   0.00700  -0.00700
C215      0.03200   0.05400   0.06500   0.02100   0.00500   0.01000
C217      0.02400   0.05300   0.05900   0.01300   0.00500   0.00900
C219      0.04100   0.05300   0.05900   0.01900   0.00200  -0.00000
C221      0.04800   0.05600   0.08500   0.02300  -0.00800  -0.02300
C222      0.03100   0.04400   0.06800   0.01300   0.01000   0.01100
C224      0.05900   0.04400   0.10100   0.02000  -0.00300  -0.01600
O226      0.11500   0.14000   0.08000   0.02800  -0.00400  -0.02900
C227      0.03500   0.05300   0.05700   0.02000   0.00900   0.01300
C229      0.05700   0.04300   0.07200   0.02300  -0.00100  -0.00500
C231      0.05000   0.07000   0.06300   0.03100  -0.00200  -0.01000
O233      0.20600   0.11900   0.19600   0.10600  -0.10500  -0.09700
C234      0.08100   0.09400   0.15000   0.05000  -0.03700  -0.06300
N235      0.03300   0.02900   0.05600   0.01700   0.00190  -0.00120
N236      0.03280   0.02700   0.05500   0.01690  -0.00370   0.00300
N237      0.03700   0.04300   0.05900   0.02700  -0.00200   0.00400
C238      0.03000   0.03100   0.05000   0.01700   0.00300   0.00300
C239      0.03500   0.03200   0.05000   0.02200  -0.00300   0.00000
C240      0.03800   0.04200   0.06300   0.02700   0.00400   0.00300
C242      0.03500   0.03300   0.05400   0.02000  -0.00200  -0.00100
C243      0.04100   0.03800   0.05800   0.02400   0.00600   0.00200
C245      0.03400   0.04400   0.05600   0.02700   0.00100   0.00400
C246      0.04000   0.03100   0.05200   0.01900   0.00100   0.00100
C247      0.04300   0.04000   0.05700   0.02500   0.00100   0.00500
C248      0.03600   0.03000   0.05200   0.02100  -0.00400   0.00200
C249      0.04600   0.04200   0.06600   0.03100   0.00000   0.00800
C251      0.03900   0.03400   0.05200   0.02400  -0.00400  -0.00100
C252      0.04800   0.04600   0.06000   0.03100   0.00700   0.01400
C254      0.05400   0.04400   0.06500   0.03300  -0.01000  -0.00500
C256      0.05300   0.05100   0.05900   0.04000  -0.00900  -0.00400
C258      0.05300   0.05600   0.05900   0.03400   0.00000   0.00200
C260      0.05600   0.05800   0.08500   0.03300   0.02300   0.01500
C261      0.04400   0.04900   0.06800   0.03100  -0.01100  -0.00100
C263      0.04400   0.06300   0.10100   0.02400   0.01600   0.01300
O265      0.14000   0.19900   0.08000   0.11200   0.02900   0.02500
C266      0.05300   0.04800   0.05700   0.03300  -0.01300  -0.00400
C268      0.04300   0.05400   0.07200   0.02000   0.00500   0.00400
C270      0.07000   0.05800   0.06300   0.03900   0.01000   0.00800
O272      0.11900   0.11300   0.19600   0.01300   0.09700  -0.00800
C273      0.09400   0.07500   0.15000   0.04400   0.06300   0.02600
N274      0.03300   0.02900   0.05600   0.01700   0.00190  -0.00120
N275      0.03280   0.02700   0.05500   0.01690  -0.00370   0.00300
N276      0.03700   0.04300   0.05900   0.02700  -0.00200   0.00400
C277      0.03000   0.03100   0.05000   0.01700   0.00300   0.00300
C278      0.03500   0.03200   0.05000   0.02200  -0.00300   0.00000
C279      0.03800   0.04200   0.06300   0.02700   0.00400   0.00300
C281      0.03500   0.03300   0.05400   0.02000  -0.00200  -0.00100
C282      0.04100   0.03800   0.05800   0.02400   0.00600   0.00200
C284      0.03400   0.04400   0.05600   0.02700   0.00100   0.00400
C285      0.04000   0.03100   0.05200   0.01900   0.00100   0.00100
C286      0.04300   0.04000   0.05700   0.02500   0.00100   0.00500
C287      0.03600   0.03000   0.05200   0.02100  -0.00400   0.00200
C288      0.04600   0.04200   0.06600   0.03100   0.00000   0.00800
C290      0.03900   0.03400   0.05200   0.02400  -0.00400  -0.00100
C291      0.04800   0.04600   0.06000   0.03100   0.00700   0.01400
C293      0.05400   0.04400   0.06500   0.03300  -0.01000  -0.00500
C295      0.05300   0.05100   0.05900   0.04000  -0.00900  -0.00400
C297      0.05300   0.05600   0.05900   0.03400   0.00000   0.00200
C299      0.05600   0.05800   0.08500   0.03300   0.02300   0.01500
C300      0.04400   0.04900   0.06800   0.03100  -0.01100  -0.00100
C302      0.04400   0.06300   0.10100   0.02400   0.01600   0.01300
O304      0.14000   0.19900   0.08000   0.11200   0.02900   0.02500
C305      0.05300   0.04800   0.05700   0.03300  -0.01300  -0.00400
C307      0.04300   0.05400   0.07200   0.02000   0.00500   0.00400
C309      0.07000   0.05800   0.06300   0.03900   0.01000   0.00800
O311      0.11900   0.11300   0.19600   0.01300   0.09700  -0.00800
C312      0.09400   0.07500   0.15000   0.04400   0.06300   0.02600
N313      0.03300   0.02900   0.05600   0.01700   0.00190  -0.00120
N314      0.03280   0.02700   0.05500   0.01690  -0.00370   0.00300
N315      0.03700   0.04300   0.05900   0.02700  -0.00200   0.00400
C316      0.03000   0.03100   0.05000   0.01700   0.00300   0.00300
C317      0.03500   0.03200   0.05000   0.02200  -0.00300   0.00000
C318      0.03800   0.04200   0.06300   0.02700   0.00400   0.00300
C320      0.03500   0.03300   0.05400   0.02000  -0.00200  -0.00100
C321      0.04100   0.03800   0.05800   0.02400   0.00600   0.00200
C323      0.03400   0.04400   0.05600   0.02700   0.00100   0.00400
C324      0.04000   0.03100   0.05200   0.01900   0.00100   0.00100
C325      0.04300   0.04000   0.05700   0.02500   0.00100   0.00500
C326      0.03600   0.03000   0.05200   0.02100  -0.00400   0.00200
C327      0.04600   0.04200   0.06600   0.03100   0.00000   0.00800
C329      0.03900   0.03400   0.05200   0.02400  -0.00400  -0.00100
C330      0.04800   0.04600   0.06000   0.03100   0.00700   0.01400
C332      0.05400   0.04400   0.06500   0.03300  -0.01000  -0.00500
C334      0.05300   0.05100   0.05900   0.04000  -0.00900  -0.00400
C336      0.05300   0.05600   0.05900   0.03400   0.00000   0.00200
C338      0.05600   0.05800   0.08500   0.03300   0.02300   0.01500
C339      0.04400   0.04900   0.06800   0.03100  -0.01100  -0.00100
C341      0.04400   0.06300   0.10100   0.02400   0.01600   0.01300
O343      0.14000   0.19900   0.08000   0.11200   0.02900   0.02500
C344      0.05300   0.04800   0.05700   0.03300  -0.01300  -0.00400
C346      0.04300   0.05400   0.07200   0.02000   0.00500   0.00400
C348      0.07000   0.05800   0.06300   0.03900   0.01000   0.00800
O350      0.11900   0.11300   0.19600   0.01300   0.09700  -0.00800
C351      0.09400   0.07500   0.15000   0.04400   0.06300   0.02600
N352      0.02900   0.02800   0.05600   0.01200   0.00120   0.00310
N353      0.02700   0.02600   0.05500   0.01010  -0.00300  -0.00670
N354      0.04300   0.02600   0.05900   0.01600  -0.00400  -0.00600
C355      0.03100   0.02700   0.05000   0.01400  -0.00300  -0.00000
C356      0.03200   0.02300   0.05000   0.01000  -0.00000  -0.00300
C357      0.04200   0.02600   0.06300   0.01500  -0.00300   0.00100
C359      0.03300   0.02800   0.05400   0.01300   0.00100  -0.00100
C360      0.03800   0.03100   0.05800   0.01400  -0.00200   0.00400
C362      0.04400   0.02400   0.05600   0.01700  -0.00400  -0.00300
C363      0.03100   0.03300   0.05200   0.01200  -0.00100   0.00000
C364      0.04000   0.03300   0.05700   0.01500  -0.00500  -0.00400
C365      0.03000   0.02400   0.05200   0.00900  -0.00200  -0.00600
C366      0.04200   0.02600   0.06600   0.01100  -0.00800  -0.00800
C368      0.03400   0.02500   0.05200   0.01000   0.00100  -0.00300
C369      0.04600   0.03200   0.06000   0.01500  -0.01400  -0.00700
C371      0.04400   0.03200   0.06500   0.01100   0.00500  -0.00500
C373      0.05100   0.02400   0.05900   0.01100   0.00400  -0.00500
C375      0.05600   0.04100   0.05900   0.02200  -0.00200  -0.00200
C377      0.05800   0.04800   0.08500   0.02500  -0.01500   0.00800
C378      0.04900   0.03100   0.06800   0.01800   0.00100  -0.01000
C380      0.06300   0.05900   0.10100   0.03900  -0.01300   0.00300
O382      0.19900   0.11500   0.08000   0.08700  -0.02500   0.00400
C383      0.04800   0.03500   0.05700   0.01500   0.00400  -0.00900
C385      0.05400   0.05700   0.07200   0.03400  -0.00400   0.00100
C387      0.05800   0.05000   0.06300   0.01900  -0.00800   0.00200
O389      0.11300   0.20600   0.19600   0.10000   0.00800   0.10500
C390      0.07500   0.08100   0.15000   0.03100  -0.02600   0.03700
N391      0.02900   0.02800   0.05600   0.01200   0.00120   0.00310
N392      0.02700   0.02600   0.05500   0.01010  -0.00300  -0.00670
N393      0.04300   0.02600   0.05900   0.01600  -0.00400  -0.00600
C394      0.03100   0.02700   0.05000   0.01400  -0.00300  -0.00000
C395      0.03200   0.02300   0.05000   0.01000  -0.00000  -0.00300
C396      0.04200   0.02600   0.06300   0.01500  -0.00300   0.00100
C398      0.03300   0.02800   0.05400   0.01300   0.00100  -0.00100
C399      0.03800   0.03100   0.05800   0.01400  -0.00200   0.00400
C401      0.04400   0.02400   0.05600   0.01700  -0.00400  -0.00300
C402      0.03100   0.03300   0.05200   0.01200  -0.00100   0.00000
C403      0.04000   0.03300   0.05700   0.01500  -0.00500  -0.00400
C404      0.03000   0.02400   0.05200   0.00900  -0.00200  -0.00600
C405      0.04200   0.02600   0.06600   0.01100  -0.00800  -0.00800
C407      0.03400   0.02500   0.05200   0.01000   0.00100  -0.00300
C408      0.04600   0.03200   0.06000   0.01500  -0.01400  -0.00700
C410      0.04400   0.03200   0.06500   0.01100   0.00500  -0.00500
C412      0.05100   0.02400   0.05900   0.01100   0.00400  -0.00500
C414      0.05600   0.04100   0.05900   0.02200  -0.00200  -0.00200
C416      0.05800   0.04800   0.08500   0.02500  -0.01500   0.00800
C417      0.04900   0.03100   0.06800   0.01800   0.00100  -0.01000
C419      0.06300   0.05900   0.10100   0.03900  -0.01300   0.00300
O421      0.19900   0.11500   0.08000   0.08700  -0.02500   0.00400
C422      0.04800   0.03500   0.05700   0.01500   0.00400  -0.00900
C424      0.05400   0.05700   0.07200   0.03400  -0.00400   0.00100
C426      0.05800   0.05000   0.06300   0.01900  -0.00800   0.00200
O428      0.11300   0.20600   0.19600   0.10000   0.00800   0.10500
C429      0.07500   0.08100   0.15000   0.03100  -0.02600   0.03700
N430      0.02900   0.02800   0.05600   0.01200   0.00120   0.00310
N431      0.02700   0.02600   0.05500   0.01010  -0.00300  -0.00670
N432      0.04300   0.02600   0.05900   0.01600  -0.00400  -0.00600
C433      0.03100   0.02700   0.05000   0.01400  -0.00300  -0.00000
C434      0.03200   0.02300   0.05000   0.01000  -0.00000  -0.00300
C435      0.04200   0.02600   0.06300   0.01500  -0.00300   0.00100
C437      0.03300   0.02800   0.05400   0.01300   0.00100  -0.00100
C438      0.03800   0.03100   0.05800   0.01400  -0.00200   0.00400
C440      0.04400   0.02400   0.05600   0.01700  -0.00400  -0.00300
C441      0.03100   0.03300   0.05200   0.01200  -0.00100   0.00000
C442      0.04000   0.03300   0.05700   0.01500  -0.00500  -0.00400
C443      0.03000   0.02400   0.05200   0.00900  -0.00200  -0.00600
C444      0.04200   0.02600   0.06600   0.01100  -0.00800  -0.00800
C446      0.03400   0.02500   0.05200   0.01000   0.00100  -0.00300
C447      0.04600   0.03200   0.06000   0.01500  -0.01400  -0.00700
C449      0.04400   0.03200   0.06500   0.01100   0.00500  -0.00500
C451      0.05100   0.02400   0.05900   0.01100   0.00400  -0.00500
C453      0.05600   0.04100   0.05900   0.02200  -0.00200  -0.00200
C455      0.05800   0.04800   0.08500   0.02500  -0.01500   0.00800
C456      0.04900   0.03100   0.06800   0.01800   0.00100  -0.01000
C458      0.06300   0.05900   0.10100   0.03900  -0.01300   0.00300
O460      0.19900   0.11500   0.08000   0.08700  -0.02500   0.00400
C461      0.04800   0.03500   0.05700   0.01500   0.00400  -0.00900
C463      0.05400   0.05700   0.07200   0.03400  -0.00400   0.00100
C465      0.05800   0.05000   0.06300   0.01900  -0.00800   0.00200
O467      0.11300   0.20600   0.19600   0.10000   0.00800   0.10500
C468      0.07500   0.08100   0.15000   0.03100  -0.02600   0.03700
N469      0.02800   0.03300   0.05600   0.01600  -0.00310  -0.00190
N470      0.02600   0.03280   0.05500   0.01590   0.00670   0.00370
N471      0.02600   0.03700   0.05900   0.01000   0.00600   0.00200
C472      0.02700   0.03000   0.05000   0.01300   0.00000  -0.00300
C473      0.02300   0.03500   0.05000   0.01300   0.00300   0.00300
C474      0.02600   0.03800   0.06300   0.01100  -0.00100  -0.00400
C476      0.02800   0.03500   0.05400   0.01500   0.00100   0.00200
C477      0.03100   0.04100   0.05800   0.01700  -0.00400  -0.00600
C479      0.02400   0.03400   0.05600   0.00700   0.00300  -0.00100
C480      0.03300   0.04000   0.05200   0.02100  -0.00000  -0.00100
C481      0.03300   0.04300   0.05700   0.01800   0.00400  -0.00100
C482      0.02400   0.03600   0.05200   0.01500   0.00600   0.00400
C483      0.02600   0.04600   0.06600   0.01500   0.00800   0.00000
C485      0.02500   0.03900   0.05200   0.01500   0.00300   0.00400
C486      0.03200   0.04800   0.06000   0.01700   0.00700  -0.00700
C488      0.03200   0.05400   0.06500   0.02100   0.00500   0.01000
C490      0.02400   0.05300   0.05900   0.01300   0.00500   0.00900
C492      0.04100   0.05300   0.05900   0.01900   0.00200  -0.00000
C494      0.04800   0.05600   0.08500   0.02300  -0.00800  -0.02300
C495      0.03100   0.04400   0.06800   0.01300   0.01000   0.01100
C497      0.05900   0.04400   0.10100   0.02000  -0.00300  -0.01600
O499      0.11500   0.14000   0.08000   0.02800  -0.00400  -0.02900
C500      0.03500   0.05300   0.05700   0.02000   0.00900   0.01300
C502      0.05700   0.04300   0.07200   0.02300  -0.00100  -0.00500
C504      0.05000   0.07000   0.06300   0.03100  -0.00200  -0.01000
O506      0.20600   0.11900   0.19600   0.10600  -0.10500  -0.09700
C507      0.08100   0.09400   0.15000   0.05000  -0.03700  -0.06300
N508      0.02800   0.03300   0.05600   0.01600  -0.00310  -0.00190
N509      0.02600   0.03280   0.05500   0.01590   0.00670   0.00370
N510      0.02600   0.03700   0.05900   0.01000   0.00600   0.00200
C511      0.02700   0.03000   0.05000   0.01300   0.00000  -0.00300
C512      0.02300   0.03500   0.05000   0.01300   0.00300   0.00300
C513      0.02600   0.03800   0.06300   0.01100  -0.00100  -0.00400
C515      0.02800   0.03500   0.05400   0.01500   0.00100   0.00200
C516      0.03100   0.04100   0.05800   0.01700  -0.00400  -0.00600
C518      0.02400   0.03400   0.05600   0.00700   0.00300  -0.00100
C519      0.03300   0.04000   0.05200   0.02100  -0.00000  -0.00100
C520      0.03300   0.04300   0.05700   0.01800   0.00400  -0.00100
C521      0.02400   0.03600   0.05200   0.01500   0.00600   0.00400
C522      0.02600   0.04600   0.06600   0.01500   0.00800   0.00000
C524      0.02500   0.03900   0.05200   0.01500   0.00300   0.00400
C525      0.03200   0.04800   0.06000   0.01700   0.00700  -0.00700
C527      0.03200   0.05400   0.06500   0.02100   0.00500   0.01000
C529      0.02400   0.05300   0.05900   0.01300   0.00500   0.00900
C531      0.04100   0.05300   0.05900   0.01900   0.00200  -0.00000
C533      0.04800   0.05600   0.08500   0.02300  -0.00800  -0.02300
C534      0.03100   0.04400   0.06800   0.01300   0.01000   0.01100
C536      0.05900   0.04400   0.10100   0.02000  -0.00300  -0.01600
O538      0.11500   0.14000   0.08000   0.02800  -0.00400  -0.02900
C539      0.03500   0.05300   0.05700   0.02000   0.00900   0.01300
C541      0.05700   0.04300   0.07200   0.02300  -0.00100  -0.00500
C543      0.05000   0.07000   0.06300   0.03100  -0.00200  -0.01000
O545      0.20600   0.11900   0.19600   0.10600  -0.10500  -0.09700
C546      0.08100   0.09400   0.15000   0.05000  -0.03700  -0.06300
N547      0.02800   0.03300   0.05600   0.01600  -0.00310  -0.00190
N548      0.02600   0.03280   0.05500   0.01590   0.00670   0.00370
N549      0.02600   0.03700   0.05900   0.01000   0.00600   0.00200
C550      0.02700   0.03000   0.05000   0.01300   0.00000  -0.00300
C551      0.02300   0.03500   0.05000   0.01300   0.00300   0.00300
C552      0.02600   0.03800   0.06300   0.01100  -0.00100  -0.00400
C554      0.02800   0.03500   0.05400   0.01500   0.00100   0.00200
C555      0.03100   0.04100   0.05800   0.01700  -0.00400  -0.00600
C557      0.02400   0.03400   0.05600   0.00700   0.00300  -0.00100
C558      0.03300   0.04000   0.05200   0.02100  -0.00000  -0.00100
C559      0.03300   0.04300   0.05700   0.01800   0.00400  -0.00100
C560      0.02400   0.03600   0.05200   0.01500   0.00600   0.00400
C561      0.02600   0.04600   0.06600   0.01500   0.00800   0.00000
C563      0.02500   0.03900   0.05200   0.01500   0.00300   0.00400
C564      0.03200   0.04800   0.06000   0.01700   0.00700  -0.00700
C566      0.03200   0.05400   0.06500   0.02100   0.00500   0.01000
C568      0.02400   0.05300   0.05900   0.01300   0.00500   0.00900
C570      0.04100   0.05300   0.05900   0.01900   0.00200  -0.00000
C572      0.04800   0.05600   0.08500   0.02300  -0.00800  -0.02300
C573      0.03100   0.04400   0.06800   0.01300   0.01000   0.01100
C575      0.05900   0.04400   0.10100   0.02000  -0.00300  -0.01600
O577      0.11500   0.14000   0.08000   0.02800  -0.00400  -0.02900
C578      0.03500   0.05300   0.05700   0.02000   0.00900   0.01300
C580      0.05700   0.04300   0.07200   0.02300  -0.00100  -0.00500
C582      0.05000   0.07000   0.06300   0.03100  -0.00200  -0.01000
O584      0.20600   0.11900   0.19600   0.10600  -0.10500  -0.09700
C585      0.08100   0.09400   0.15000   0.05000  -0.03700  -0.06300
N586      0.03300   0.02900   0.05600   0.01700   0.00190  -0.00120
N587      0.03280   0.02700   0.05500   0.01690  -0.00370   0.00300
N588      0.03700   0.04300   0.05900   0.02700  -0.00200   0.00400
C589      0.03000   0.03100   0.05000   0.01700   0.00300   0.00300
C590      0.03500   0.03200   0.05000   0.02200  -0.00300   0.00000
C591      0.03800   0.04200   0.06300   0.02700   0.00400   0.00300
C593      0.03500   0.03300   0.05400   0.02000  -0.00200  -0.00100
C594      0.04100   0.03800   0.05800   0.02400   0.00600   0.00200
C596      0.03400   0.04400   0.05600   0.02700   0.00100   0.00400
C597      0.04000   0.03100   0.05200   0.01900   0.00100   0.00100
C598      0.04300   0.04000   0.05700   0.02500   0.00100   0.00500
C599      0.03600   0.03000   0.05200   0.02100  -0.00400   0.00200
C600      0.04600   0.04200   0.06600   0.03100   0.00000   0.00800
C602      0.03900   0.03400   0.05200   0.02400  -0.00400  -0.00100
C603      0.04800   0.04600   0.06000   0.03100   0.00700   0.01400
C605      0.05400   0.04400   0.06500   0.03300  -0.01000  -0.00500
C607      0.05300   0.05100   0.05900   0.04000  -0.00900  -0.00400
C609      0.05300   0.05600   0.05900   0.03400   0.00000   0.00200
C611      0.05600   0.05800   0.08500   0.03300   0.02300   0.01500
C612      0.04400   0.04900   0.06800   0.03100  -0.01100  -0.00100
C614      0.04400   0.06300   0.10100   0.02400   0.01600   0.01300
O616      0.14000   0.19900   0.08000   0.11200   0.02900   0.02500
C617      0.05300   0.04800   0.05700   0.03300  -0.01300  -0.00400
C619      0.04300   0.05400   0.07200   0.02000   0.00500   0.00400
C621      0.07000   0.05800   0.06300   0.03900   0.01000   0.00800
O623      0.11900   0.11300   0.19600   0.01300   0.09700  -0.00800
C624      0.09400   0.07500   0.15000   0.04400   0.06300   0.02600
N625      0.03300   0.02900   0.05600   0.01700   0.00190  -0.00120
N626      0.03280   0.02700   0.05500   0.01690  -0.00370   0.00300
N627      0.03700   0.04300   0.05900   0.02700  -0.00200   0.00400
C628      0.03000   0.03100   0.05000   0.01700   0.00300   0.00300
C629      0.03500   0.03200   0.05000   0.02200  -0.00300   0.00000
C630      0.03800   0.04200   0.06300   0.02700   0.00400   0.00300
C632      0.03500   0.03300   0.05400   0.02000  -0.00200  -0.00100
C633      0.04100   0.03800   0.05800   0.02400   0.00600   0.00200
C635      0.03400   0.04400   0.05600   0.02700   0.00100   0.00400
C636      0.04000   0.03100   0.05200   0.01900   0.00100   0.00100
C637      0.04300   0.04000   0.05700   0.02500   0.00100   0.00500
C638      0.03600   0.03000   0.05200   0.02100  -0.00400   0.00200
C639      0.04600   0.04200   0.06600   0.03100   0.00000   0.00800
C641      0.03900   0.03400   0.05200   0.02400  -0.00400  -0.00100
C642      0.04800   0.04600   0.06000   0.03100   0.00700   0.01400
C644      0.05400   0.04400   0.06500   0.03300  -0.01000  -0.00500
C646      0.05300   0.05100   0.05900   0.04000  -0.00900  -0.00400
C648      0.05300   0.05600   0.05900   0.03400   0.00000   0.00200
C650      0.05600   0.05800   0.08500   0.03300   0.02300   0.01500
C651      0.04400   0.04900   0.06800   0.03100  -0.01100  -0.00100
C653      0.04400   0.06300   0.10100   0.02400   0.01600   0.01300
O655      0.14000   0.19900   0.08000   0.11200   0.02900   0.02500
C656      0.05300   0.04800   0.05700   0.03300  -0.01300  -0.00400
C658      0.04300   0.05400   0.07200   0.02000   0.00500   0.00400
C660      0.07000   0.05800   0.06300   0.03900   0.01000   0.00800
O662      0.11900   0.11300   0.19600   0.01300   0.09700  -0.00800
C663      0.09400   0.07500   0.15000   0.04400   0.06300   0.02600
N664      0.03300   0.02900   0.05600   0.01700   0.00190  -0.00120
N665      0.03280   0.02700   0.05500   0.01690  -0.00370   0.00300
N666      0.03700   0.04300   0.05900   0.02700  -0.00200   0.00400
C667      0.03000   0.03100   0.05000   0.01700   0.00300   0.00300
C668      0.03500   0.03200   0.05000   0.02200  -0.00300   0.00000
C669      0.03800   0.04200   0.06300   0.02700   0.00400   0.00300
C671      0.03500   0.03300   0.05400   0.02000  -0.00200  -0.00100
C672      0.04100   0.03800   0.05800   0.02400   0.00600   0.00200
C674      0.03400   0.04400   0.05600   0.02700   0.00100   0.00400
C675      0.04000   0.03100   0.05200   0.01900   0.00100   0.00100
C676      0.04300   0.04000   0.05700   0.02500   0.00100   0.00500
C677      0.03600   0.03000   0.05200   0.02100  -0.00400   0.00200
C678      0.04600   0.04200   0.06600   0.03100   0.00000   0.00800
C680      0.03900   0.03400   0.05200   0.02400  -0.00400  -0.00100
C681      0.04800   0.04600   0.06000   0.03100   0.00700   0.01400
C683      0.05400   0.04400   0.06500   0.03300  -0.01000  -0.00500
C685      0.05300   0.05100   0.05900   0.04000  -0.00900  -0.00400
C687      0.05300   0.05600   0.05900   0.03400   0.00000   0.00200
C689      0.05600   0.05800   0.08500   0.03300   0.02300   0.01500
C690      0.04400   0.04900   0.06800   0.03100  -0.01100  -0.00100
C692      0.04400   0.06300   0.10100   0.02400   0.01600   0.01300
O694      0.14000   0.19900   0.08000   0.11200   0.02900   0.02500
C695      0.05300   0.04800   0.05700   0.03300  -0.01300  -0.00400
C697      0.04300   0.05400   0.07200   0.02000   0.00500   0.00400
C699      0.07000   0.05800   0.06300   0.03900   0.01000   0.00800
O701      0.11900   0.11300   0.19600   0.01300   0.09700  -0.00800
C702      0.09400   0.07500   0.15000   0.04400   0.06300   0.02600
Co703     0.02230   0.01890   0.03190   0.01550  -0.00330  -0.00120
Co704     0.02230   0.01890   0.03190   0.01550  -0.00330  -0.00120
Co705     0.01890   0.01020   0.03190   0.00340   0.00120  -0.00210
Co706     0.01890   0.01020   0.03190   0.00340   0.00120  -0.00210
Co707     0.01020   0.02230   0.03190   0.00680   0.00210   0.00330
Co708     0.01020   0.02230   0.03190   0.00680   0.00210   0.00330
Co709     0.02230   0.01890   0.03190   0.01550  -0.00330  -0.00120
Co710     0.01890   0.01020   0.03190   0.00340   0.00120  -0.00210
Co711     0.01020   0.02230   0.03190   0.00680   0.00210   0.00330
loop_
_geom_bond_atom_site_label_1
_geom_bond_atom_site_label_2
_geom_bond_distance
_geom_bond_site_symmetry_2
_ccdc_geom_bond_type
N1     C12     1.373   .     S
N1     C14     1.374   .     S
N1     Co706   2.069   .     S
N2     C4      1.354   .     S
N2     C5      1.382   .     S
N2     Co706   2.056   .     S
N3     C22     1.330   .     S
N3     C27     1.340   .     S
N3     Co703   2.337   .     S
C4     C8      1.418   .     S
C4     C9      1.441   .     S
C5     C6      1.434   .     S
C5     C17     1.406   .     S
C6     H7      0.951   .     S
C6     C9      1.351   .     S
C8     C12     1.396   .     S
C8     C13     1.477   .     S
C9     H10     0.951   .     S
C11    C17     1.517   .     S
C11    C20     1.376   .     S
C11    C32     1.385   .     S
C12    C18     1.439   .     S
C13    C24     1.386   1_556 S
C13    C34     1.408   .     S
C14    C15     1.445   .     S
C14    C368    1.403   .     S
C15    H16     0.950   .     S
C15    C18     1.350   .     S
C17    C365    1.403   .     S
C18    H19     0.949   .     S
C20    H21     0.950   .     S
C20    C27     1.381   .     S
C22    H23     0.950   .     S
C22    C32     1.373   .     S
C24    C13     1.386   1_554 S
C24    H25     0.953   .     S
C24    C36     1.400   .     S
C26    C29     1.389   .     S
C26    C39     1.489   .     S
C26    C36     1.378   .     S
C27    H28     0.950   .     S
C29    H30     0.951   .     S
C29    C34     1.375   1_554 S
O31    C39     1.294   .     S
C32    H33     0.949   .     S
C34    H35     0.951   .     S
C34    C29     1.375   1_556 S
C36    H37     0.949   .     S
O38    C39     1.251   .     S
N40    C51     1.373   .     S
N40    C53     1.374   .     S
N40    Co710   2.069   1_554 S
N41    C43     1.354   1_556 S
N41    C44     1.382   .     S
N41    Co710   2.056   .     S
N42    C61     1.330   .     S
N42    C66     1.340   .     S
N42    Co704   2.337   .     S
C43    N41     1.354   1_554 S
C43    C47     1.418   .     S
C43    C48     1.441   .     S
C44    C45     1.434   .     S
C44    C56     1.406   .     S
C45    H46     0.951   .     S
C45    C48     1.351   1_556 S
C47    C51     1.396   .     S
C47    C52     1.477   .     S
C48    H49     0.951   .     S
C48    C45     1.351   1_554 S
C50    C56     1.517   .     S
C50    C59     1.376   .     S
C50    C71     1.385   .     S
C51    C57     1.439   .     S
C52    C63     1.386   .     S
C52    C73     1.408   .     S
C53    C54     1.445   .     S
C53    C407    1.403   1_554 S
C54    H55     0.950   .     S
C54    C57     1.350   .     S
C56    C404    1.403   .     S
C57    H58     0.949   .     S
C59    H60     0.950   .     S
C59    C66     1.381   .     S
C61    H62     0.950   1_455 S
C61    C71     1.373   .     S
H62    C61     0.950   1_655 S
C63    H64     0.953   .     S
C63    C75     1.400   .     S
C65    C68     1.389   .     S
C65    C78     1.489   .     S
C65    C75     1.378   .     S
C66    H67     0.950   .     S
C68    H69     0.951   .     S
C68    C73     1.375   .     S
O70    C78     1.294   .     S
C71    H72     0.949   .     S
C73    H74     0.951   .     S
C75    H76     0.949   .     S
O77    C78     1.251   .     S
N79    C90     1.373   .     S
N79    C92     1.374   .     S
N79    Co705   2.069   .     S
N80    C82     1.354   .     S
N80    C83     1.382   .     S
N80    Co705   2.056   .     S
N81    C100    1.330   1_556 S
N81    C105    1.340   .     S
N81    Co709   2.337   .     S
C82    C86     1.418   .     S
C82    C87     1.441   .     S
C83    C84     1.434   .     S
C83    C95     1.406   .     S
C84    H85     0.951   1_545 S
C84    C87     1.351   .     S
H85    C84     0.951   1_565 S
C86    C90     1.396   .     S
C86    C91     1.477   .     S
C87    H88     0.951   .     S
C89    C95     1.517   1_556 S
C89    C98     1.376   1_545 S
C89    C110    1.385   1_546 S
C90    C96     1.439   .     S
C91    C102    1.386   .     S
C91    C112    1.408   .     S
C92    C93     1.445   .     S
C92    C446    1.403   .     S
C93    H94     0.950   .     S
C93    C96     1.350   .     S
C95    C89     1.517   1_554 S
C95    C443    1.403   1_554 S
C96    H97     0.949   .     S
C98    C89     1.376   1_565 S
C98    H99     0.950   1_565 S
C98    C105    1.381   .     S
H99    C98     0.950   1_545 S
C100   N81     1.330   1_554 S
C100   H101    0.950   .     S
C100   C110    1.373   .     S
C102   H103    0.953   .     S
C102   C114    1.400   .     S
C104   C107    1.389   .     S
C104   C117    1.489   .     S
C104   C114    1.378   .     S
C105   H106    0.950   .     S
C107   H108    0.951   .     S
C107   C112    1.375   .     S
O109   C117    1.294   1_554 S
C110   C89     1.385   1_564 S
C110   H111    0.949   .     S
C112   H113    0.951   .     S
C114   H115    0.949   .     S
O116   C117    1.251   .     S
C117   O109    1.294   1_556 S
N118   C129    1.373   .     S
N118   C131    1.374   1_545 S
N118   Co708   2.069   .     S
N119   C121    1.354   .     S
N119   C122    1.382   .     S
N119   Co708   2.056   .     S
N120   C139    1.330   .     S
N120   C144    1.340   .     S
N120   Co705   2.337   .     S
C121   C125    1.418   .     S
C121   C126    1.441   .     S
C122   C123    1.434   .     S
C122   C134    1.406   .     S
C123   H124    0.951   .     S
C123   C126    1.351   .     S
C125   C129    1.396   .     S
C125   C130    1.477   .     S
C126   H127    0.951   .     S
C128   C134    1.517   .     S
C128   C137    1.376   .     S
C128   C149    1.385   .     S
C129   C135    1.439   .     S
C130   C141    1.386   1_556 S
C130   C151    1.408   .     S
C131   N118    1.374   1_565 S
C131   C132    1.445   .     S
C131   C485    1.403   .     S
C132   H133    0.950   .     S
C132   C135    1.350   1_565 S
C134   C482    1.403   .     S
C135   C132    1.350   1_545 S
C135   H136    0.949   .     S
C137   H138    0.950   .     S
C137   C144    1.381   .     S
C139   H140    0.950   .     S
C139   C149    1.373   .     S
C141   C130    1.386   1_554 S
C141   H142    0.953   .     S
C141   C153    1.400   .     S
C143   C146    1.389   .     S
C143   C156    1.489   .     S
C143   C153    1.378   .     S
C144   H145    0.950   .     S
C146   H147    0.951   .     S
C146   C151    1.375   1_554 S
O148   C156    1.294   .     S
C149   H150    0.949   .     S
C151   H152    0.951   .     S
C151   C146    1.375   1_556 S
C153   H154    0.949   .     S
O155   C156    1.251   .     S
N157   C168    1.373   .     S
N157   C170    1.374   .     S
N157   Co711   2.069   1_554 S
N158   C160    1.354   1_556 S
N158   C161    1.382   .     S
N158   Co711   2.056   .     S
N159   C178    1.330   .     S
N159   C183    1.340   .     S
N159   Co706   2.337   .     S
C160   N158    1.354   1_554 S
C160   C164    1.418   .     S
C160   C165    1.441   .     S
C161   C162    1.434   .     S
C161   C173    1.406   .     S
C162   H163    0.951   .     S
C162   C165    1.351   1_556 S
C164   C168    1.396   .     S
C164   C169    1.477   .     S
C165   H166    0.951   .     S
C165   C162    1.351   1_554 S
C167   C173    1.517   .     S
C167   C176    1.376   .     S
C167   C188    1.385   .     S
C168   C174    1.439   .     S
C169   C180    1.386   .     S
C169   C190    1.408   .     S
C170   C171    1.445   .     S
C170   C524    1.403   1_554 S
C171   H172    0.950   .     S
C171   C174    1.350   .     S
C173   C521    1.403   .     S
C174   H175    0.949   .     S
C176   H177    0.950   .     S
C176   C183    1.381   .     S
C178   H179    0.950   .     S
C178   C188    1.373   .     S
C180   H181    0.953   .     S
C180   C192    1.400   .     S
C182   C185    1.389   .     S
C182   C195    1.489   .     S
C182   C192    1.378   .     S
C183   H184    0.950   .     S
C185   H186    0.951   .     S
C185   C190    1.375   .     S
O187   C195    1.294   .     S
C188   H189    0.949   .     S
C190   H191    0.951   .     S
C192   H193    0.949   .     S
O194   C195    1.251   .     S
N196   C207    1.373   .     S
N196   C209    1.374   .     S
N196   Co707   2.069   .     S
N197   C199    1.354   .     S
N197   C200    1.382   .     S
N197   Co707   2.056   .     S
N198   C217    1.330   1_556 S
N198   C222    1.340   .     S
N198   Co710   2.337   .     S
C199   C203    1.418   .     S
C199   C204    1.441   .     S
C200   C201    1.434   .     S
C200   C212    1.406   .     S
C201   H202    0.951   1_655 S
C201   C204    1.351   .     S
H202   C201    0.951   1_455 S
C203   C207    1.396   .     S
C203   C208    1.477   .     S
C204   H205    0.951   .     S
C206   C212    1.517   1_556 S
C206   C215    1.376   1_655 S
C206   C227    1.385   1_656 S
C207   C213    1.439   .     S
C208   C219    1.386   .     S
C208   C229    1.408   .     S
C209   C210    1.445   .     S
C209   C563    1.403   .     S
C210   H211    0.950   .     S
C210   C213    1.350   .     S
C212   C206    1.517   1_554 S
C212   C560    1.403   1_554 S
C213   H214    0.949   .     S
C215   C206    1.376   1_455 S
C215   H216    0.950   1_455 S
C215   C222    1.381   .     S
H216   C215    0.950   1_655 S
C217   N198    1.330   1_554 S
C217   H218    0.950   .     S
C217   C227    1.373   .     S
C219   H220    0.953   .     S
C219   C231    1.400   .     S
C221   C224    1.389   .     S
C221   C234    1.489   .     S
C221   C231    1.378   .     S
C222   H223    0.950   .     S
C224   H225    0.951   .     S
C224   C229    1.375   .     S
O226   C234    1.294   1_554 S
C227   C206    1.385   1_454 S
C227   H228    0.949   .     S
C229   H230    0.951   .     S
C231   H232    0.949   .     S
O233   C234    1.251   .     S
C234   O226    1.294   1_556 S
N235   C246    1.373   .     S
N235   C248    1.374   1_655 S
N235   Co704   2.069   1_655 S
N236   C238    1.354   .     S
N236   C239    1.382   .     S
N236   Co704   2.056   1_655 S
N237   C256    1.330   .     S
N237   C261    1.340   .     S
N237   Co707   2.337   .     S
C238   C242    1.418   .     S
C238   C243    1.441   .     S
C239   C240    1.434   .     S
C239   C251    1.406   .     S
C240   H241    0.951   .     S
C240   C243    1.351   .     S
C242   C246    1.396   .     S
C242   C247    1.477   .     S
C243   H244    0.951   .     S
C245   C251    1.517   .     S
C245   C254    1.376   .     S
C245   C266    1.385   .     S
C246   C252    1.439   .     S
C247   C258    1.386   1_556 S
C247   C268    1.408   .     S
C248   N235    1.374   1_455 S
C248   C249    1.445   .     S
C248   C602    1.403   .     S
C249   H250    0.950   .     S
C249   C252    1.350   1_455 S
C251   C599    1.403   .     S
C252   C249    1.350   1_655 S
C252   H253    0.949   .     S
C254   H255    0.950   .     S
C254   C261    1.381   .     S
C256   H257    0.950   .     S
C256   C266    1.373   .     S
C258   C247    1.386   1_554 S
C258   H259    0.953   .     S
C258   C270    1.400   .     S
C260   C263    1.389   .     S
C260   C273    1.489   .     S
C260   C270    1.378   .     S
C261   H262    0.950   .     S
C263   H264    0.951   .     S
C263   C268    1.375   1_554 S
O265   C273    1.294   .     S
C266   H267    0.949   .     S
C268   H269    0.951   .     S
C268   C263    1.375   1_556 S
C270   H271    0.949   .     S
O272   C273    1.251   .     S
N274   C285    1.373   .     S
N274   C287    1.374   .     S
N274   Co709   2.069   1_554 S
N275   C277    1.354   1_556 S
N275   C278    1.382   .     S
N275   Co709   2.056   .     S
N276   C295    1.330   .     S
N276   C300    1.340   .     S
N276   Co708   2.337   1_565 S
C277   N275    1.354   1_554 S
C277   C281    1.418   .     S
C277   C282    1.441   .     S
C278   C279    1.434   .     S
C278   C290    1.406   .     S
C279   H280    0.951   .     S
C279   C282    1.351   1_556 S
C281   C285    1.396   .     S
C281   C286    1.477   .     S
C282   H283    0.951   .     S
C282   C279    1.351   1_554 S
C284   C290    1.517   .     S
C284   C293    1.376   .     S
C284   C305    1.385   .     S
C285   C291    1.439   .     S
C286   C297    1.386   .     S
C286   C307    1.408   .     S
C287   C288    1.445   .     S
C287   C641    1.403   1_554 S
C288   H289    0.950   .     S
C288   C291    1.350   .     S
C290   C638    1.403   .     S
C291   H292    0.949   .     S
C293   H294    0.950   .     S
C293   C300    1.381   .     S
C295   H296    0.950   1_565 S
C295   C305    1.373   .     S
H296   C295    0.950   1_545 S
C297   H298    0.953   .     S
C297   C309    1.400   .     S
C299   C302    1.389   .     S
C299   C312    1.489   .     S
C299   C309    1.378   .     S
C300   H301    0.950   .     S
C302   H303    0.951   .     S
C302   C307    1.375   .     S
O304   C312    1.294   .     S
C305   H306    0.949   .     S
C307   H308    0.951   .     S
C309   H310    0.949   .     S
O311   C312    1.251   .     S
N313   C324    1.373   .     S
N313   C326    1.374   .     S
N313   Co703   2.069   .     S
N314   C316    1.354   .     S
N314   C317    1.382   .     S
N314   Co703   2.056   .     S
N315   C334    1.330   1_556 S
N315   C339    1.340   .     S
N315   Co711   2.337   .     S
C316   C320    1.418   .     S
C316   C321    1.441   .     S
C317   C318    1.434   .     S
C317   C329    1.406   .     S
C318   H319    0.951   .     S
C318   C321    1.351   .     S
C320   C324    1.396   .     S
C320   C325    1.477   .     S
C321   H322    0.951   .     S
C323   C329    1.517   1_556 S
C323   C332    1.376   .     S
C323   C344    1.385   1_556 S
C324   C330    1.439   .     S
C325   C336    1.386   .     S
C325   C346    1.408   .     S
C326   C327    1.445   .     S
C326   C680    1.403   .     S
C327   H328    0.950   .     S
C327   C330    1.350   .     S
C329   C323    1.517   1_554 S
C329   C677    1.403   1_554 S
C330   H331    0.949   .     S
C332   H333    0.950   .     S
C332   C339    1.381   .     S
C334   N315    1.330   1_554 S
C334   H335    0.950   .     S
C334   C344    1.373   .     S
C336   H337    0.953   .     S
C336   C348    1.400   .     S
C338   C341    1.389   .     S
C338   C351    1.489   .     S
C338   C348    1.378   .     S
C339   H340    0.950   .     S
C341   H342    0.951   .     S
C341   C346    1.375   .     S
O343   C351    1.294   1_554 S
C344   C323    1.385   1_554 S
C344   H345    0.949   .     S
C346   H347    0.951   .     S
C348   H349    0.949   .     S
O350   C351    1.251   .     S
C351   O343    1.294   1_556 S
N352   C363    1.373   .     S
N352   C365    1.374   .     S
N352   Co706   2.069   .     S
N353   C355    1.354   .     S
N353   C356    1.382   .     S
N353   Co706   2.056   .     S
N354   C373    1.330   .     S
N354   C378    1.340   .     S
N354   Co709   2.337   .     S
C355   C359    1.418   .     S
C355   C360    1.441   .     S
C356   C357    1.434   .     S
C356   C368    1.406   .     S
C357   H358    0.951   .     S
C357   C360    1.351   .     S
C359   C363    1.396   .     S
C359   C364    1.477   .     S
C360   H361    0.951   .     S
C362   C368    1.517   .     S
C362   C371    1.376   .     S
C362   C383    1.385   .     S
C363   C369    1.439   .     S
C364   C375    1.386   1_554 S
C364   C385    1.408   .     S
C365   C366    1.445   .     S
C366   H367    0.950   .     S
C366   C369    1.350   .     S
C369   H370    0.949   .     S
C371   H372    0.950   .     S
C371   C378    1.381   .     S
C373   H374    0.950   .     S
C373   C383    1.373   .     S
C375   C364    1.386   1_556 S
C375   H376    0.953   .     S
C375   C387    1.400   .     S
C377   C380    1.389   .     S
C377   C390    1.489   .     S
C377   C387    1.378   .     S
C378   H379    0.950   .     S
C380   H381    0.951   .     S
C380   C385    1.375   1_556 S
O382   C390    1.294   .     S
C383   H384    0.949   .     S
C385   H386    0.951   .     S
C385   C380    1.375   1_554 S
C387   H388    0.949   .     S
O389   C390    1.251   .     S
N391   C402    1.373   .     S
N391   C404    1.374   .     S
N391   Co710   2.069   .     S
N392   C394    1.354   .     S
N392   C395    1.382   .     S
N392   Co710   2.056   .     S
N393   C412    1.330   1_554 S
N393   C417    1.340   .     S
N393   Co703   2.337   .     S
C394   C398    1.418   .     S
C394   C399    1.441   .     S
C395   C396    1.434   .     S
C395   C407    1.406   .     S
C396   H397    0.951   1_565 S
C396   C399    1.351   .     S
H397   C396    0.951   1_545 S
C398   C402    1.396   .     S
C398   C403    1.477   .     S
C399   H400    0.951   .     S
C401   C407    1.517   1_554 S
C401   C410    1.376   1_565 S
C401   C422    1.385   1_564 S
C402   C408    1.439   .     S
C403   C414    1.386   .     S
C403   C424    1.408   .     S
C404   C405    1.445   .     S
C405   H406    0.950   .     S
C405   C408    1.350   .     S
C407   C401    1.517   1_556 S
C407   C53     1.403   1_556 S
C408   H409    0.949   .     S
C410   C401    1.376   1_545 S
C410   H411    0.950   1_545 S
C410   C417    1.381   .     S
H411   C410    0.950   1_565 S
C412   N393    1.330   1_556 S
C412   H413    0.950   .     S
C412   C422    1.373   .     S
C414   H415    0.953   .     S
C414   C426    1.400   .     S
C416   C419    1.389   .     S
C416   C429    1.489   .     S
C416   C426    1.378   .     S
C417   H418    0.950   .     S
C419   H420    0.951   .     S
C419   C424    1.375   .     S
O421   C429    1.294   1_556 S
C422   C401    1.385   1_546 S
C422   H423    0.949   .     S
C424   H425    0.951   .     S
C426   H427    0.949   .     S
O428   C429    1.251   .     S
C429   O421    1.294   1_554 S
N430   C441    1.373   .     S
N430   C443    1.374   .     S
N430   Co705   2.069   1_556 S
N431   C433    1.354   1_554 S
N431   C434    1.382   .     S
N431   Co705   2.056   .     S
N432   C451    1.330   .     S
N432   C456    1.340   .     S
N432   Co704   2.337   1_655 S
C433   N431    1.354   1_556 S
C433   C437    1.418   .     S
C433   C438    1.441   .     S
C434   C435    1.434   .     S
C434   C446    1.406   .     S
C435   H436    0.951   .     S
C435   C438    1.351   1_554 S
C437   C441    1.396   .     S
C437   C442    1.477   .     S
C438   H439    0.951   .     S
C438   C435    1.351   1_556 S
C440   C446    1.517   .     S
C440   C449    1.376   .     S
C440   C461    1.385   .     S
C441   C447    1.439   .     S
C442   C453    1.386   .     S
C442   C463    1.408   .     S
C443   C444    1.445   .     S
C443   C95     1.403   1_556 S
C444   H445    0.950   .     S
C444   C447    1.350   .     S
C447   H448    0.949   .     S
C449   H450    0.950   .     S
C449   C456    1.381   .     S
C451   H452    0.950   1_655 S
C451   C461    1.373   .     S
H452   C451    0.950   1_455 S
C453   H454    0.953   .     S
C453   C465    1.400   .     S
C455   C458    1.389   .     S
C455   C468    1.489   .     S
C455   C465    1.378   .     S
C456   H457    0.950   .     S
C458   H459    0.951   .     S
C458   C463    1.375   .     S
O460   C468    1.294   .     S
C461   H462    0.949   .     S
C463   H464    0.951   .     S
C465   H466    0.949   .     S
O467   C468    1.251   .     S
N469   C480    1.373   .     S
N469   C482    1.374   1_565 S
N469   Co708   2.069   1_565 S
N470   C472    1.354   .     S
N470   C473    1.382   .     S
N470   Co708   2.056   1_565 S
N471   C490    1.330   .     S
N471   C495    1.340   .     S
N471   Co710   2.337   .     S
C472   C476    1.418   .     S
C472   C477    1.441   .     S
C473   C474    1.434   .     S
C473   C485    1.406   .     S
C474   H475    0.951   .     S
C474   C477    1.351   .     S
C476   C480    1.396   .     S
C476   C481    1.477   .     S
C477   H478    0.951   .     S
C479   C485    1.517   .     S
C479   C488    1.376   .     S
C479   C500    1.385   .     S
C480   C486    1.439   .     S
C481   C492    1.386   1_554 S
C481   C502    1.408   .     S
C482   N469    1.374   1_545 S
C482   C483    1.445   .     S
C483   H484    0.950   .     S
C483   C486    1.350   1_545 S
C486   C483    1.350   1_565 S
C486   H487    0.949   .     S
C488   H489    0.950   .     S
C488   C495    1.381   .     S
C490   H491    0.950   .     S
C490   C500    1.373   .     S
C492   C481    1.386   1_556 S
C492   H493    0.953   .     S
C492   C504    1.400   .     S
C494   C497    1.389   .     S
C494   C507    1.489   .     S
C494   C504    1.378   .     S
C495   H496    0.950   .     S
C497   H498    0.951   .     S
C497   C502    1.375   1_556 S
O499   C507    1.294   .     S
C500   H501    0.949   .     S
C502   H503    0.951   .     S
C502   C497    1.375   1_554 S
C504   H505    0.949   .     S
O506   C507    1.251   .     S
N508   C519    1.373   .     S
N508   C521    1.374   .     S
N508   Co711   2.069   .     S
N509   C511    1.354   .     S
N509   C512    1.382   .     S
N509   Co711   2.056   .     S
N510   C529    1.330   1_554 S
N510   C534    1.340   .     S
N510   Co705   2.337   .     S
C511   C515    1.418   .     S
C511   C516    1.441   .     S
C512   C513    1.434   .     S
C512   C524    1.406   .     S
C513   H514    0.951   1_455 S
C513   C516    1.351   .     S
H514   C513    0.951   1_655 S
C515   C519    1.396   .     S
C515   C520    1.477   .     S
C516   H517    0.951   .     S
C518   C524    1.517   1_554 S
C518   C527    1.376   1_455 S
C518   C539    1.385   1_454 S
C519   C525    1.439   .     S
C520   C531    1.386   .     S
C520   C541    1.408   .     S
C521   C522    1.445   .     S
C522   H523    0.950   .     S
C522   C525    1.350   .     S
C524   C518    1.517   1_556 S
C524   C170    1.403   1_556 S
C525   H526    0.949   .     S
C527   C518    1.376   1_655 S
C527   H528    0.950   1_655 S
C527   C534    1.381   .     S
H528   C527    0.950   1_455 S
C529   N510    1.330   1_556 S
C529   H530    0.950   .     S
C529   C539    1.373   .     S
C531   H532    0.953   .     S
C531   C543    1.400   .     S
C533   C536    1.389   .     S
C533   C546    1.489   .     S
C533   C543    1.378   .     S
C534   H535    0.950   .     S
C536   H537    0.951   .     S
C536   C541    1.375   .     S
O538   C546    1.294   1_556 S
C539   C518    1.385   1_656 S
C539   H540    0.949   .     S
C541   H542    0.951   .     S
C543   H544    0.949   .     S
O545   C546    1.251   .     S
C546   O538    1.294   1_554 S
N547   C558    1.373   .     S
N547   C560    1.374   .     S
N547   Co707   2.069   1_556 S
N548   C550    1.354   1_554 S
N548   C551    1.382   .     S
N548   Co707   2.056   .     S
N549   C568    1.330   .     S
N549   C573    1.340   .     S
N549   Co706   2.337   .     S
C550   N548    1.354   1_556 S
C550   C554    1.418   .     S
C550   C555    1.441   .     S
C551   C552    1.434   .     S
C551   C563    1.406   .     S
C552   H553    0.951   .     S
C552   C555    1.351   1_554 S
C554   C558    1.396   .     S
C554   C559    1.477   .     S
C555   H556    0.951   .     S
C555   C552    1.351   1_556 S
C557   C563    1.517   .     S
C557   C566    1.376   .     S
C557   C578    1.385   .     S
C558   C564    1.439   .     S
C559   C570    1.386   .     S
C559   C580    1.408   .     S
C560   C561    1.445   .     S
C560   C212    1.403   1_556 S
C561   H562    0.950   .     S
C561   C564    1.350   .     S
C564   H565    0.949   .     S
C566   H567    0.950   .     S
C566   C573    1.381   .     S
C568   H569    0.950   .     S
C568   C578    1.373   .     S
C570   H571    0.953   .     S
C570   C582    1.400   .     S
C572   C575    1.389   .     S
C572   C585    1.489   .     S
C572   C582    1.378   .     S
C573   H574    0.950   .     S
C575   H576    0.951   .     S
C575   C580    1.375   .     S
O577   C585    1.294   .     S
C578   H579    0.949   .     S
C580   H581    0.951   .     S
C582   H583    0.949   .     S
O584   C585    1.251   .     S
N586   C597    1.373   .     S
N586   C599    1.374   1_455 S
N586   Co704   2.069   .     S
N587   C589    1.354   .     S
N587   C590    1.382   .     S
N587   Co704   2.056   .     S
N588   C607    1.330   .     S
N588   C612    1.340   .     S
N588   Co711   2.337   .     S
C589   C593    1.418   .     S
C589   C594    1.441   .     S
C590   C591    1.434   .     S
C590   C602    1.406   .     S
C591   H592    0.951   .     S
C591   C594    1.351   .     S
C593   C597    1.396   .     S
C593   C598    1.477   .     S
C594   H595    0.951   .     S
C596   C602    1.517   .     S
C596   C605    1.376   .     S
C596   C617    1.385   .     S
C597   C603    1.439   .     S
C598   C609    1.386   1_554 S
C598   C619    1.408   .     S
C599   N586    1.374   1_655 S
C599   C600    1.445   .     S
C600   H601    0.950   .     S
C600   C603    1.350   1_655 S
C603   C600    1.350   1_455 S
C603   H604    0.949   .     S
C605   H606    0.950   .     S
C605   C612    1.381   .     S
C607   H608    0.950   .     S
C607   C617    1.373   .     S
C609   C598    1.386   1_556 S
C609   H610    0.953   .     S
C609   C621    1.400   .     S
C611   C614    1.389   .     S
C611   C624    1.489   .     S
C611   C621    1.378   .     S
C612   H613    0.950   .     S
C614   H615    0.951   .     S
C614   C619    1.375   1_556 S
O616   C624    1.294   .     S
C617   H618    0.949   .     S
C619   H620    0.951   .     S
C619   C614    1.375   1_554 S
C621   H622    0.949   .     S
O623   C624    1.251   .     S
N625   C636    1.373   .     S
N625   C638    1.374   .     S
N625   Co709   2.069   .     S
N626   C628    1.354   .     S
N626   C629    1.382   .     S
N626   Co709   2.056   .     S
N627   C646    1.330   1_554 S
N627   C651    1.340   .     S
N627   Co707   2.337   .     S
C628   C632    1.418   .     S
C628   C633    1.441   .     S
C629   C630    1.434   .     S
C629   C641    1.406   .     S
C630   H631    0.951   .     S
C630   C633    1.351   .     S
C632   C636    1.396   .     S
C632   C637    1.477   .     S
C633   H634    0.951   .     S
C635   C641    1.517   1_554 S
C635   C644    1.376   .     S
C635   C656    1.385   1_554 S
C636   C642    1.439   .     S
C637   C648    1.386   .     S
C637   C658    1.408   .     S
C638   C639    1.445   .     S
C639   H640    0.950   .     S
C639   C642    1.350   .     S
C641   C635    1.517   1_556 S
C641   C287    1.403   1_556 S
C642   H643    0.949   .     S
C644   H645    0.950   .     S
C644   C651    1.381   .     S
C646   N627    1.330   1_556 S
C646   H647    0.950   .     S
C646   C656    1.373   .     S
C648   H649    0.953   .     S
C648   C660    1.400   .     S
C650   C653    1.389   .     S
C650   C663    1.489   .     S
C650   C660    1.378   .     S
C651   H652    0.950   .     S
C653   H654    0.951   .     S
C653   C658    1.375   .     S
O655   C663    1.294   1_556 S
C656   C635    1.385   1_556 S
C656   H657    0.949   .     S
C658   H659    0.951   .     S
C660   H661    0.949   .     S
O662   C663    1.251   .     S
C663   O655    1.294   1_554 S
N664   C675    1.373   .     S
N664   C677    1.374   .     S
N664   Co703   2.069   1_556 S
N665   C667    1.354   1_554 S
N665   C668    1.382   .     S
N665   Co703   2.056   .     S
N666   C685    1.330   .     S
N666   C690    1.340   .     S
N666   Co708   2.337   .     S
C667   N665    1.354   1_556 S
C667   C671    1.418   .     S
C667   C672    1.441   .     S
C668   C669    1.434   .     S
C668   C680    1.406   .     S
C669   H670    0.951   .     S
C669   C672    1.351   1_554 S
C671   C675    1.396   .     S
C671   C676    1.477   .     S
C672   H673    0.951   .     S
C672   C669    1.351   1_556 S
C674   C680    1.517   .     S
C674   C683    1.376   .     S
C674   C695    1.385   .     S
C675   C681    1.439   .     S
C676   C687    1.386   .     S
C676   C697    1.408   .     S
C677   C678    1.445   .     S
C677   C329    1.403   1_556 S
C678   H679    0.950   .     S
C678   C681    1.350   .     S
C681   H682    0.949   .     S
C683   H684    0.950   .     S
C683   C690    1.381   .     S
C685   H686    0.950   1_545 S
C685   C695    1.373   .     S
H686   C685    0.950   1_565 S
C687   H688    0.953   .     S
C687   C699    1.400   .     S
C689   C692    1.389   .     S
C689   C702    1.489   .     S
C689   C699    1.378   .     S
C690   H691    0.950   .     S
C692   H693    0.951   .     S
C692   C697    1.375   .     S
O694   C702    1.294   .     S
C695   H696    0.949   .     S
C697   H698    0.951   .     S
C699   H700    0.949   .     S
O701   C702    1.251   .     S
Co703  N664    2.069   1_554 S
Co704  N432    2.337   1_455 S
Co704  N235    2.069   1_455 S
Co704  N236    2.056   1_455 S
Co705  N430    2.069   1_554 S
Co707  N547    2.069   1_554 S
Co708  N276    2.337   1_545 S
Co708  N469    2.069   1_545 S
Co708  N470    2.056   1_545 S
Co709  N274    2.069   1_556 S
Co710  N40     2.069   1_556 S
Co711  N157    2.069   1_556 S
